-------------------------------------------------------
          Amber 18 PMEMD                              2018
          -------------------------------------------------------

  [-O]verwriting output

File Assignments:

 Here is the input file:

 &cntrl
   nstlim=500000, nscm=1000,
   ntx=5, irest=1, ntpr=1000,
   tempi=300.0, temp0=300.0, ntt=3, gamma_ln=2.0,
   ntp=1, pres0=1.01325, taup=5.0,
   ntb=2, igb=0, cut=10.0,
   dt=0.002, ig=-1,
   ntc=2, ntf=2,
   iwrap=0,
   ntwr=1000, ntwx=50000, ntave=1000,
   ioutfm=1, ntwv=-1,
   ifsc = 0, icfe=1,
   clambda=0.11505,
   timask1=':1',
   timask2=':2', crgmask = ':2',
/

Note: ig = -1. Setting random seed to   390867 based on wallclock time in
      microseconds.

--------------------------------------------------------------------------------
   1.  RESOURCE   USE:
--------------------------------------------------------------------------------

 getting box info from netcdf restart file
 NATOM  =   11419 NTYPES =       4 NBONH =   11409 MBONA  =       8
 NTHETH =       0 MTHETA =      12 NPHIH =       0 MPHIA  =       0
 NHPARM =       0 NPARM  =       0 NNB   =   15234 NRES   =    3805
 NBONA  =       8 NTHETA =      12 NPHIA =       0 NUMBND =       3
 NUMANG =       1 NPTRA  =       0 NATYP =       4 NPHB   =       1
 IFBOX  =       2 NMXRS  =       5 IFCAP =       0 NEXTRA =       0
 NCOPY  =       0

     BOX TYPE: TRUNCATED OCTAHEDRON

--------------------------------------------------------------------------------
   2.  CONTROL  DATA  FOR  THE  RUN
--------------------------------------------------------------------------------

default_name

General flags:
     imin    =       0, nmropt  =       0

Nature and format of input:
     ntx     =       5, irest   =       1, ntrx    =       1

Nature and format of output:
     ntxo    =       2, ntpr    =    1000, ntrx    =       1, ntwr    =    1000
     iwrap   =       0, ntwx    =   50000, ntwv    =      -1, ntwe    =       0
     ioutfm  =       1, ntwprt  =       0, idecomp =       0, rbornstat=      0

Potential function:
     ntf     =       2, ntb     =       2, igb     =       0, nsnb    =      25
     ipol    =       0, gbsa    =       0, iesp    =       0
     dielc   =   1.00000, cut     =  10.00000, intdiel =   1.00000

Frozen or restrained atoms:
     ibelly  =       0, ntr     =       0

Molecular dynamics:
     nstlim  =    500000, nscm    =      1000, nrespa  =         1
     t       =   0.00000, dt      =   0.00200, vlimit  =  -1.00000

Langevin dynamics temperature regulation:
     ig      =  390867
     temp0   = 300.00000, tempi   = 300.00000, gamma_ln=   2.00000

Pressure regulation:
     ntp     =       1
     pres0   =   1.01325, comp    =  44.60000, taup    =   5.00000

SHAKE:
     ntc     =       2, jfastw  =       0
     tol     =   0.00001

Free energy options:
     icfe    =       1, ifsc    =       0, klambda =       1
     clambda =  0.1150, scalpha =  0.5000, scbeta  = 12.0000
     sceeorder =       2
     dynlmb =  0.0000 logdvdl =       0

Ewald parameters:
     verbose =       0, ew_type =       0, nbflag  =       1, use_pme =       1
     vdwmeth =       1, eedmeth =       1, netfrc  =       1
     Box X =   55.004   Box Y =   55.004   Box Z =   55.004
     Alpha =  109.471   Beta  =  109.471   Gamma =  109.471
     NFFT1 =   56       NFFT2 =   56       NFFT3 =   56
     Cutoff=   10.000   Tol   =0.100E-04
     Ewald Coefficient =  0.27511
     Interpolation order =    4
     TI Mask 1 :1; matches      5 atoms
     TI Mask 2 :2; matches      5 atoms
     TI region 1:   11414 atoms
     TI region 2:   11414 atoms
Removing charge of       1.2430 from atom       6
Removing charge of      -1.0605 from atom       7
Removing charge of      -1.0605 from atom       8
Removing charge of      -1.0605 from atom       9
Removing charge of      -1.0605 from atom      10
Total charge of  -2.99900001 removed from       5 atoms
     Checking for mismatched coordinates.

--------------------------------------------------------------------------------
   3.  ATOMIC COORDINATES AND VELOCITIES
--------------------------------------------------------------------------------

default_name
 begin time read from input coords =   200.000 ps

 Number of triangulated 3-point waters found:     3803

     Sum of charges for TI region  1 =  -2.99900001
     Assuming uniform neutralizing plasma

     Sum of charges for TI region  2 =   0.00000000
     Forcing neutrality...

--------------------------------------------------------------------------------
   4.  RESULTS
 NSTEP =     1000   TIME(PS) =     202.000  TEMP(K) =   298.12  PRESS =  -914.9
 Etot   =    -29537.5152  EKtot   =      6763.2947  EPtot      =    -36300.8098
 BOND   =         1.6640  ANGLE   =         8.5830  DIHED      =         0.0000
 1-4 NB =         0.0000  1-4 EEL =         0.0000  VDWAALS    =      5204.7004
 EELEC  =    -41515.7574  EHBOND  =         0.0000  RESTRAINT  =         0.0000
 EKCMT  =      3422.0319  VIRIAL  =      5913.6421  VOLUME     =    126129.7202
                                                    Density    =         0.9033
 DV/DL  =      1018.5598
 ------------------------------------------------------------------------------

      A V E R A G E S   O V E R    1000 S T E P S

 NSTEP =     1000   TIME(PS) =     202.000  TEMP(K) =   298.37  PRESS =  -870.0
 Etot   =    -29455.4794  EKtot   =      6769.1475  EPtot      =    -36224.6270
 BOND   =         2.0405  ANGLE   =         7.8815  DIHED      =         0.0000
 1-4 NB =         0.0000  1-4 EEL =         0.0000  VDWAALS    =      5261.7222
 EELEC  =    -41496.2711  EHBOND  =         0.0000  RESTRAINT  =         0.0000
 EKCMT  =      3398.0451  VIRIAL  =      5785.8598  VOLUME     =    127069.2594
                                                    Density    =         0.8966
 DV/DL  =      1050.6500
 ------------------------------------------------------------------------------

      R M S  F L U C T U A T I O N S

 NSTEP =     1000   TIME(PS) =     202.000  TEMP(K) =     2.95  PRESS =   175.8
 Etot   =        79.5903  EKtot   =        66.9125  EPtot      =        68.4501
 BOND   =         1.2010  ANGLE   =         0.9803  DIHED      =         0.0000
 1-4 NB =         0.0000  1-4 EEL =         0.0000  VDWAALS    =        81.3838
 EELEC  =        91.8325  EHBOND  =         0.0000  RESTRAINT  =         0.0000
 EKCMT  =        45.1015  VIRIAL  =       489.6692  VOLUME     =       584.9333
                                                    Density    =         0.0041
 DV/DL  =        25.2041
 ------------------------------------------------------------------------------

      A V E R A G E S   O V E R    1000 S T E P S

 NSTEP =     1000   TIME(PS) =     202.000  TEMP(K) =   298.37  PRESS =  -870.0
 Etot   =    -29455.4794  EKtot   =      6769.1475  EPtot      =    -36224.6270
 BOND   =         2.0405  ANGLE   =         7.8815  DIHED      =         0.0000
 1-4 NB =         0.0000  1-4 EEL =         0.0000  VDWAALS    =      5261.7222
 EELEC  =    -41496.2711  EHBOND  =         0.0000  RESTRAINT  =         0.0000
 EKCMT  =      3398.0451  VIRIAL  =      5785.8598  VOLUME     =    127069.2594
                                                    Density    =         0.8966
 DV/DL  =      1050.6500
 ------------------------------------------------------------------------------

      R M S  F L U C T U A T I O N S

 NSTEP =     1000   TIME(PS) =     202.000  TEMP(K) =     2.95  PRESS =   175.8
 Etot   =        79.5903  EKtot   =        66.9125  EPtot      =        68.4501
 BOND   =         1.2010  ANGLE   =         0.9803  DIHED      =         0.0000
 1-4 NB =         0.0000  1-4 EEL =         0.0000  VDWAALS    =        81.3838
 EELEC  =        91.8325  EHBOND  =         0.0000  RESTRAINT  =         0.0000
 EKCMT  =        45.1015  VIRIAL  =       489.6692  VOLUME     =       584.9333
                                                    Density    =         0.0041
 DV/DL  =        25.2041
 ------------------------------------------------------------------------------

      DV/DL, AVERAGES OVER    1000 STEPS

 NSTEP =     1000   TIME(PS) =     202.000  TEMP(K) =     2.95  PRESS =     0.0
 Etot   =         0.0000  EKtot   =         0.0000  EPtot      =      1050.6500
 BOND   =         0.0000  ANGLE   =         0.0000  DIHED      =         0.0000
 1-4 NB =         0.0000  1-4 EEL =         0.0000  VDWAALS    =         0.0000
 EELEC  =      1050.6500  EHBOND  =         0.0000  RESTRAINT  =         0.0000
 EKCMT  =         0.0000  VIRIAL  =         0.0000  VOLUME     =         0.0000
                                                    Density    =         0.0000
 DV/DL  =      1050.6500
 ------------------------------------------------------------------------------

      A V E R A G E S   O V E R    1000 S T E P S

 NSTEP =     2000   TIME(PS) =     204.000  TEMP(K) =   299.89  PRESS =  -725.8
 Etot   =    -29470.5599  EKtot   =      6803.5703  EPtot      =    -36274.1303
 BOND   =         2.3552  ANGLE   =         8.0650  DIHED      =         0.0000
 1-4 NB =         0.0000  1-4 EEL =         0.0000  VDWAALS    =      5274.7590
 EELEC  =    -41559.3094  EHBOND  =         0.0000  RESTRAINT  =         0.0000
 EKCMT  =      3419.9849  VIRIAL  =      5383.7920  VOLUME     =    125318.7854
                                                    Density    =         0.9091
 DV/DL  =      1065.7876
 ------------------------------------------------------------------------------

      R M S  F L U C T U A T I O N S

 NSTEP =     2000   TIME(PS) =     204.000  TEMP(K) =     2.68  PRESS =   156.1
 Etot   =        58.0372  EKtot   =        60.8639  EPtot      =        57.2645
 BOND   =         1.3943  ANGLE   =         1.1341  DIHED      =         0.0000
 1-4 NB =         0.0000  1-4 EEL =         0.0000  VDWAALS    =        84.5723
 EELEC  =       103.2409  EHBOND  =         0.0000  RESTRAINT  =         0.0000
 EKCMT  =        37.5323  VIRIAL  =       416.6430  VOLUME     =       463.5220
                                                    Density    =         0.0034
 DV/DL  =        23.0813
 ------------------------------------------------------------------------------

      A V E R A G E S   O V E R    1000 S T E P S

 NSTEP =     2000   TIME(PS) =     204.000  TEMP(K) =   299.89  PRESS =  -725.8
 Etot   =    -29470.5599  EKtot   =      6803.5703  EPtot      =    -36274.1303
 BOND   =         2.3552  ANGLE   =         8.0650  DIHED      =         0.0000
 1-4 NB =         0.0000  1-4 EEL =         0.0000  VDWAALS    =      5274.7590
 EELEC  =    -41559.3094  EHBOND  =         0.0000  RESTRAINT  =         0.0000
 EKCMT  =      3419.9849  VIRIAL  =      5383.7920  VOLUME     =    125318.7854
                                                    Density    =         0.9091
 DV/DL  =      1065.7876
 ------------------------------------------------------------------------------

      R M S  F L U C T U A T I O N S

 NSTEP =     2000   TIME(PS) =     204.000  TEMP(K) =     2.68  PRESS =   156.1
 Etot   =        58.0372  EKtot   =        60.8639  EPtot      =        57.2645
 BOND   =         1.3943  ANGLE   =         1.1341  DIHED      =         0.0000
 1-4 NB =         0.0000  1-4 EEL =         0.0000  VDWAALS    =        84.5723
 EELEC  =       103.2409  EHBOND  =         0.0000  RESTRAINT  =         0.0000
 EKCMT  =        37.5323  VIRIAL  =       416.6430  VOLUME     =       463.5220
                                                    Density    =         0.0034
 DV/DL  =        23.0813
 ------------------------------------------------------------------------------

      DV/DL, AVERAGES OVER    1000 STEPS

 NSTEP =     2000   TIME(PS) =     204.000  TEMP(K) =     2.68  PRESS =     0.0
 Etot   =         0.0000  EKtot   =         0.0000  EPtot      =      1065.7876
 BOND   =         0.0000  ANGLE   =         0.0000  DIHED      =         0.0000
 1-4 NB =         0.0000  1-4 EEL =         0.0000  VDWAALS    =         0.0000
 EELEC  =      1065.7876  EHBOND  =         0.0000  RESTRAINT  =         0.0000
 EKCMT  =         0.0000  VIRIAL  =         0.0000  VOLUME     =         0.0000
                                                    Density    =         0.0000
 DV/DL  =      1065.7876
 ------------------------------------------------------------------------------

      A V E R A G E S   O V E R    1000 S T E P S

 NSTEP =   500000   TIME(PS) =    1200.000  TEMP(K) =   299.43  PRESS =    49.4
 Etot   =    -30006.7166  EKtot   =      6793.1115  EPtot      =    -36799.8281
 BOND   =         1.9832  ANGLE   =         7.8265  DIHED      =         0.0000
 1-4 NB =         0.0000  1-4 EEL =         0.0000  VDWAALS    =      5478.5174
 EELEC  =    -42288.1552  EHBOND  =         0.0000  RESTRAINT  =         0.0000
 EKCMT  =      3414.2796  VIRIAL  =      3290.9861  VOLUME     =    115559.2023
                                                    Density    =         0.9859
 DV/DL  =      1065.2184
 ------------------------------------------------------------------------------

      R M S  F L U C T U A T I O N S

 NSTEP =   500000   TIME(PS) =    1200.000  TEMP(K) =     2.52  PRESS =   150.8
 Etot   =        77.9331  EKtot   =        57.0996  EPtot      =        67.4912
 BOND   =         1.2816  ANGLE   =         1.1209  DIHED      =         0.0000
 1-4 NB =         0.0000  1-4 EEL =         0.0000  VDWAALS    =        75.3780
 EELEC  =       106.3683  EHBOND  =         0.0000  RESTRAINT  =         0.0000
 EKCMT  =        47.6199  VIRIAL  =       380.3227  VOLUME     =        35.5565
                                                    Density    =         0.0003
 DV/DL  =        22.5649
 ------------------------------------------------------------------------------

      A V E R A G E S   O V E R    1000 S T E P S

 NSTEP =   500000   TIME(PS) =    1200.000  TEMP(K) =   299.43  PRESS =    49.4
 Etot   =    -30006.7166  EKtot   =      6793.1115  EPtot      =    -36799.8281
 BOND   =         1.9832  ANGLE   =         7.8265  DIHED      =         0.0000
 1-4 NB =         0.0000  1-4 EEL =         0.0000  VDWAALS    =      5478.5174
 EELEC  =    -42288.1552  EHBOND  =         0.0000  RESTRAINT  =         0.0000
 EKCMT  =      3414.2796  VIRIAL  =      3290.9861  VOLUME     =    115559.2023
                                                    Density    =         0.9859
 DV/DL  =      1065.2184
 ------------------------------------------------------------------------------

      R M S  F L U C T U A T I O N S

 NSTEP =   500000   TIME(PS) =    1200.000  TEMP(K) =     2.52  PRESS =   150.8
 Etot   =        77.9331  EKtot   =        57.0996  EPtot      =        67.4912
 BOND   =         1.2816  ANGLE   =         1.1209  DIHED      =         0.0000
 1-4 NB =         0.0000  1-4 EEL =         0.0000  VDWAALS    =        75.3780
 EELEC  =       106.3683  EHBOND  =         0.0000  RESTRAINT  =         0.0000
 EKCMT  =        47.6199  VIRIAL  =       380.3227  VOLUME     =        35.5565
                                                    Density    =         0.0003
 DV/DL  =        22.5649
 ------------------------------------------------------------------------------

      DV/DL, AVERAGES OVER    1000 STEPS

 NSTEP =   500000   TIME(PS) =    1200.000  TEMP(K) =     2.52  PRESS =     0.0
 Etot   =         0.0000  EKtot   =         0.0000  EPtot      =      1065.2184
 BOND   =         0.0000  ANGLE   =         0.0000  DIHED      =         0.0000
 1-4 NB =         0.0000  1-4 EEL =         0.0000  VDWAALS    =         0.0000
 EELEC  =      1065.2184  EHBOND  =         0.0000  RESTRAINT  =         0.0000
 EKCMT  =         0.0000  VIRIAL  =         0.0000  VOLUME     =         0.0000
                                                    Density    =         0.0000
 DV/DL  =      1065.2184
 ------------------------------------------------------------------------------

      A V E R A G E S   O V E R  500000 S T E P S

 NSTEP =   500000   TIME(PS) =    1200.000  TEMP(K) =   300.05  PRESS =   -10.5
 Etot   =    -30024.1035  EKtot   =      6807.0935  EPtot      =    -36831.1971
 BOND   =         2.2044  ANGLE   =         7.8816  DIHED      =         0.0000
 1-4 NB =         0.0000  1-4 EEL =         0.0000  VDWAALS    =      5459.2187
 EELEC  =    -42300.5018  EHBOND  =         0.0000  RESTRAINT  =         0.0000
 EKCMT  =      3413.4057  VIRIAL  =      3441.0806  VOLUME     =    115663.8072
                                                    Density    =         0.9851
 DV/DL  =      1063.9855
 ------------------------------------------------------------------------------

      R M S  F L U C T U A T I O N S

 NSTEP =   500000   TIME(PS) =    1200.000  TEMP(K) =     2.76  PRESS =   192.1
 Etot   =       116.1434  EKtot   =        62.6957  EPtot      =       101.2029
 BOND   =         1.3868  ANGLE   =         1.0306  DIHED      =         0.0000
 1-4 NB =         0.0000  1-4 EEL =         0.0000  VDWAALS    =        93.2391
 EELEC  =       156.7507  EHBOND  =         0.0000  RESTRAINT  =         0.0000
 EKCMT  =        45.0065  VIRIAL  =       483.1383  VOLUME     =       937.5580
                                                    Density    =         0.0075
 DV/DL  =        24.9164
 ------------------------------------------------------------------------------

      A V E R A G E S   O V E R  500000 S T E P S

 NSTEP =   500000   TIME(PS) =    1200.000  TEMP(K) =   300.05  PRESS =   -10.5
 Etot   =    -30024.1035  EKtot   =      6807.0935  EPtot      =    -36831.1971
 BOND   =         2.2044  ANGLE   =         7.8816  DIHED      =         0.0000
 1-4 NB =         0.0000  1-4 EEL =         0.0000  VDWAALS    =      5459.2187
 EELEC  =    -42300.5018  EHBOND  =         0.0000  RESTRAINT  =         0.0000
 EKCMT  =      3413.4057  VIRIAL  =      3441.0806  VOLUME     =    115663.8072
                                                    Density    =         0.9851
 DV/DL  =      1063.9855
 ------------------------------------------------------------------------------

      R M S  F L U C T U A T I O N S

 NSTEP =   500000   TIME(PS) =    1200.000  TEMP(K) =     2.76  PRESS =   192.1
 Etot   =       116.1434  EKtot   =        62.6957  EPtot      =       101.2029
 BOND   =         1.3868  ANGLE   =         1.0306  DIHED      =         0.0000
 1-4 NB =         0.0000  1-4 EEL =         0.0000  VDWAALS    =        93.2391
 EELEC  =       156.7507  EHBOND  =         0.0000  RESTRAINT  =         0.0000
 EKCMT  =        45.0065  VIRIAL  =       483.1383  VOLUME     =       937.5580
                                                    Density    =         0.0075
 DV/DL  =        24.9164
 ------------------------------------------------------------------------------

      DV/DL, AVERAGES OVER  500000 STEPS

 NSTEP =   500000   TIME(PS) =    1200.000  TEMP(K) =     2.76  PRESS =     0.0
 Etot   =         0.0000  EKtot   =         0.0000  EPtot      =      1063.9855
 BOND   =         0.0000  ANGLE   =         0.0000  DIHED      =         0.0000
 1-4 NB =         0.0000  1-4 EEL =         0.0000  VDWAALS    =         0.0000
 EELEC  =      1063.9855  EHBOND  =         0.0000  RESTRAINT  =         0.0000
 EKCMT  =         0.0000  VIRIAL  =         0.0000  VOLUME     =         0.0000
                                                    Density    =         0.0000
 DV/DL  =      1063.9855
 ------------------------------------------------------------------------------
