-------------------------------------------------------
          Amber 18 PMEMD                              2018
          -------------------------------------------------------

  [-O]verwriting output

File Assignments:

 Here is the input file:

 &cntrl
   nstlim=500000, nscm=1000,
   ntx=5, irest=1, ntpr=1000,
   tempi=300.0, temp0=300.0, ntt=3, gamma_ln=2.0,
   ntp=1, pres0=1.01325, taup=5.0,
   ntb=2, igb=0, cut=10.0,
   dt=0.002, ig=-1,
   ntc=2, ntf=2,
   iwrap=0,
   ntwr=1000, ntwx=50000, ntave=1000,
   ioutfm=1, ntwv=-1,
   ifsc = 0, icfe=1,
   clambda=0.31608,
   timask1=':1',
   timask2=':2', crgmask = ':2',
/

Note: ig = -1. Setting random seed to   468529 based on wallclock time in
      microseconds.

--------------------------------------------------------------------------------
   1.  RESOURCE   USE:
--------------------------------------------------------------------------------

 getting box info from netcdf restart file
 NATOM  =   11419 NTYPES =       4 NBONH =   11409 MBONA  =       8
 NTHETH =       0 MTHETA =      12 NPHIH =       0 MPHIA  =       0
 NHPARM =       0 NPARM  =       0 NNB   =   15234 NRES   =    3805
 NBONA  =       8 NTHETA =      12 NPHIA =       0 NUMBND =       3
 NUMANG =       1 NPTRA  =       0 NATYP =       4 NPHB   =       1
 IFBOX  =       2 NMXRS  =       5 IFCAP =       0 NEXTRA =       0
 NCOPY  =       0

     BOX TYPE: TRUNCATED OCTAHEDRON

--------------------------------------------------------------------------------
   2.  CONTROL  DATA  FOR  THE  RUN
--------------------------------------------------------------------------------

default_name

General flags:
     imin    =       0, nmropt  =       0

Nature and format of input:
     ntx     =       5, irest   =       1, ntrx    =       1

Nature and format of output:
     ntxo    =       2, ntpr    =    1000, ntrx    =       1, ntwr    =    1000
     iwrap   =       0, ntwx    =   50000, ntwv    =      -1, ntwe    =       0
     ioutfm  =       1, ntwprt  =       0, idecomp =       0, rbornstat=      0

Potential function:
     ntf     =       2, ntb     =       2, igb     =       0, nsnb    =      25
     ipol    =       0, gbsa    =       0, iesp    =       0
     dielc   =   1.00000, cut     =  10.00000, intdiel =   1.00000

Frozen or restrained atoms:
     ibelly  =       0, ntr     =       0

Molecular dynamics:
     nstlim  =    500000, nscm    =      1000, nrespa  =         1
     t       =   0.00000, dt      =   0.00200, vlimit  =  -1.00000

Langevin dynamics temperature regulation:
     ig      =  468529
     temp0   = 300.00000, tempi   = 300.00000, gamma_ln=   2.00000

Pressure regulation:
     ntp     =       1
     pres0   =   1.01325, comp    =  44.60000, taup    =   5.00000

SHAKE:
     ntc     =       2, jfastw  =       0
     tol     =   0.00001

Free energy options:
     icfe    =       1, ifsc    =       0, klambda =       1
     clambda =  0.3161, scalpha =  0.5000, scbeta  = 12.0000
     sceeorder =       2
     dynlmb =  0.0000 logdvdl =       0

Ewald parameters:
     verbose =       0, ew_type =       0, nbflag  =       1, use_pme =       1
     vdwmeth =       1, eedmeth =       1, netfrc  =       1
     Box X =   55.004   Box Y =   55.004   Box Z =   55.004
     Alpha =  109.471   Beta  =  109.471   Gamma =  109.471
     NFFT1 =   56       NFFT2 =   56       NFFT3 =   56
     Cutoff=   10.000   Tol   =0.100E-04
     Ewald Coefficient =  0.27511
     Interpolation order =    4
     TI Mask 1 :1; matches      5 atoms
     TI Mask 2 :2; matches      5 atoms
     TI region 1:   11414 atoms
     TI region 2:   11414 atoms
Removing charge of       1.2430 from atom       6
Removing charge of      -1.0605 from atom       7
Removing charge of      -1.0605 from atom       8
Removing charge of      -1.0605 from atom       9
Removing charge of      -1.0605 from atom      10
Total charge of  -2.99900001 removed from       5 atoms
     Checking for mismatched coordinates.

--------------------------------------------------------------------------------
   3.  ATOMIC COORDINATES AND VELOCITIES
--------------------------------------------------------------------------------

default_name
 begin time read from input coords =   200.000 ps

 Number of triangulated 3-point waters found:     3803

     Sum of charges for TI region  1 =  -2.99900001
     Assuming uniform neutralizing plasma

     Sum of charges for TI region  2 =   0.00000000
     Forcing neutrality...

--------------------------------------------------------------------------------
   4.  RESULTS
 NSTEP =     1000   TIME(PS) =     202.000  TEMP(K) =   304.21  PRESS =  -684.8
 Etot   =    -29187.2730  EKtot   =      6901.6050  EPtot      =    -36088.8780
 BOND   =         0.5916  ANGLE   =         6.5005  DIHED      =         0.0000
 1-4 NB =         0.0000  1-4 EEL =         0.0000  VDWAALS    =      5359.5035
 EELEC  =    -41455.4736  EHBOND  =         0.0000  RESTRAINT  =         0.0000
 EKCMT  =      3457.3953  VIRIAL  =      5322.3802  VOLUME     =    126140.8339
                                                    Density    =         0.9032
 DV/DL  =       803.4493
 ------------------------------------------------------------------------------

      A V E R A G E S   O V E R    1000 S T E P S

 NSTEP =     1000   TIME(PS) =     202.000  TEMP(K) =   300.37  PRESS =  -864.9
 Etot   =    -29030.4200  EKtot   =      6814.4895  EPtot      =    -35844.9096
 BOND   =         1.5112  ANGLE   =         7.4458  DIHED      =         0.0000
 1-4 NB =         0.0000  1-4 EEL =         0.0000  VDWAALS    =      5193.7924
 EELEC  =    -41047.6589  EHBOND  =         0.0000  RESTRAINT  =         0.0000
 EKCMT  =      3433.3649  VIRIAL  =      5807.1026  VOLUME     =    127062.2073
                                                    Density    =         0.8967
 DV/DL  =       834.9091
 ------------------------------------------------------------------------------

      R M S  F L U C T U A T I O N S

 NSTEP =     1000   TIME(PS) =     202.000  TEMP(K) =     2.26  PRESS =   150.0
 Etot   =       118.2390  EKtot   =        51.3804  EPtot      =       104.2082
 BOND   =         1.0193  ANGLE   =         0.6473  DIHED      =         0.0000
 1-4 NB =         0.0000  1-4 EEL =         0.0000  VDWAALS    =        83.1556
 EELEC  =       163.2256  EHBOND  =         0.0000  RESTRAINT  =         0.0000
 EKCMT  =        34.6887  VIRIAL  =       421.4516  VOLUME     =       563.7604
                                                    Density    =         0.0040
 DV/DL  =        25.4820
 ------------------------------------------------------------------------------

      A V E R A G E S   O V E R    1000 S T E P S

 NSTEP =     1000   TIME(PS) =     202.000  TEMP(K) =   300.37  PRESS =  -864.9
 Etot   =    -29030.4200  EKtot   =      6814.4895  EPtot      =    -35844.9096
 BOND   =         1.5112  ANGLE   =         7.4458  DIHED      =         0.0000
 1-4 NB =         0.0000  1-4 EEL =         0.0000  VDWAALS    =      5193.7924
 EELEC  =    -41047.6589  EHBOND  =         0.0000  RESTRAINT  =         0.0000
 EKCMT  =      3433.3649  VIRIAL  =      5807.1026  VOLUME     =    127062.2073
                                                    Density    =         0.8967
 DV/DL  =       834.9091
 ------------------------------------------------------------------------------

      R M S  F L U C T U A T I O N S

 NSTEP =     1000   TIME(PS) =     202.000  TEMP(K) =     2.26  PRESS =   150.0
 Etot   =       118.2390  EKtot   =        51.3804  EPtot      =       104.2082
 BOND   =         1.0193  ANGLE   =         0.6473  DIHED      =         0.0000
 1-4 NB =         0.0000  1-4 EEL =         0.0000  VDWAALS    =        83.1556
 EELEC  =       163.2256  EHBOND  =         0.0000  RESTRAINT  =         0.0000
 EKCMT  =        34.6887  VIRIAL  =       421.4516  VOLUME     =       563.7604
                                                    Density    =         0.0040
 DV/DL  =        25.4820
 ------------------------------------------------------------------------------

      DV/DL, AVERAGES OVER    1000 STEPS

 NSTEP =     1000   TIME(PS) =     202.000  TEMP(K) =     2.26  PRESS =     0.0
 Etot   =         0.0000  EKtot   =         0.0000  EPtot      =       834.9091
 BOND   =         0.0000  ANGLE   =         0.0000  DIHED      =         0.0000
 1-4 NB =         0.0000  1-4 EEL =         0.0000  VDWAALS    =         0.0000
 EELEC  =       834.9091  EHBOND  =         0.0000  RESTRAINT  =         0.0000
 EKCMT  =         0.0000  VIRIAL  =         0.0000  VOLUME     =         0.0000
                                                    Density    =         0.0000
 DV/DL  =       834.9091
 ------------------------------------------------------------------------------

      A V E R A G E S   O V E R    1000 S T E P S

 NSTEP =     2000   TIME(PS) =     204.000  TEMP(K) =   299.60  PRESS =  -703.4
 Etot   =    -29294.3235  EKtot   =      6796.9472  EPtot      =    -36091.2706
 BOND   =         1.5022  ANGLE   =         7.7796  DIHED      =         0.0000
 1-4 NB =         0.0000  1-4 EEL =         0.0000  VDWAALS    =      5293.8144
 EELEC  =    -41394.3668  EHBOND  =         0.0000  RESTRAINT  =         0.0000
 EKCMT  =      3404.8165  VIRIAL  =      5308.6640  VOLUME     =    125274.6215
                                                    Density    =         0.9095
 DV/DL  =       836.5689
 ------------------------------------------------------------------------------

      R M S  F L U C T U A T I O N S

 NSTEP =     2000   TIME(PS) =     204.000  TEMP(K) =     2.10  PRESS =   182.9
 Etot   =        76.6229  EKtot   =        47.7013  EPtot      =        81.0379
 BOND   =         0.8380  ANGLE   =         1.1160  DIHED      =         0.0000
 1-4 NB =         0.0000  1-4 EEL =         0.0000  VDWAALS    =        94.7148
 EELEC  =       156.5162  EHBOND  =         0.0000  RESTRAINT  =         0.0000
 EKCMT  =        30.5627  VIRIAL  =       496.5611  VOLUME     =       475.1013
                                                    Density    =         0.0034
 DV/DL  =        21.9646
 ------------------------------------------------------------------------------

      A V E R A G E S   O V E R    1000 S T E P S

 NSTEP =     2000   TIME(PS) =     204.000  TEMP(K) =   299.60  PRESS =  -703.4
 Etot   =    -29294.3235  EKtot   =      6796.9472  EPtot      =    -36091.2706
 BOND   =         1.5022  ANGLE   =         7.7796  DIHED      =         0.0000
 1-4 NB =         0.0000  1-4 EEL =         0.0000  VDWAALS    =      5293.8144
 EELEC  =    -41394.3668  EHBOND  =         0.0000  RESTRAINT  =         0.0000
 EKCMT  =      3404.8165  VIRIAL  =      5308.6640  VOLUME     =    125274.6215
                                                    Density    =         0.9095
 DV/DL  =       836.5689
 ------------------------------------------------------------------------------

      R M S  F L U C T U A T I O N S

 NSTEP =     2000   TIME(PS) =     204.000  TEMP(K) =     2.10  PRESS =   182.9
 Etot   =        76.6229  EKtot   =        47.7013  EPtot      =        81.0379
 BOND   =         0.8380  ANGLE   =         1.1160  DIHED      =         0.0000
 1-4 NB =         0.0000  1-4 EEL =         0.0000  VDWAALS    =        94.7148
 EELEC  =       156.5162  EHBOND  =         0.0000  RESTRAINT  =         0.0000
 EKCMT  =        30.5627  VIRIAL  =       496.5611  VOLUME     =       475.1013
                                                    Density    =         0.0034
 DV/DL  =        21.9646
 ------------------------------------------------------------------------------

      DV/DL, AVERAGES OVER    1000 STEPS

 NSTEP =     2000   TIME(PS) =     204.000  TEMP(K) =     2.10  PRESS =     0.0
 Etot   =         0.0000  EKtot   =         0.0000  EPtot      =       836.5689
 BOND   =         0.0000  ANGLE   =         0.0000  DIHED      =         0.0000
 1-4 NB =         0.0000  1-4 EEL =         0.0000  VDWAALS    =         0.0000
 EELEC  =       836.5689  EHBOND  =         0.0000  RESTRAINT  =         0.0000
 EKCMT  =         0.0000  VIRIAL  =         0.0000  VOLUME     =         0.0000
                                                    Density    =         0.0000
 DV/DL  =       836.5689
 ------------------------------------------------------------------------------

      A V E R A G E S   O V E R    1000 S T E P S

 NSTEP =   500000   TIME(PS) =    1200.000  TEMP(K) =   299.14  PRESS =     9.8
 Etot   =    -29889.9470  EKtot   =      6786.5316  EPtot      =    -36676.4786
 BOND   =         1.7719  ANGLE   =         7.8394  DIHED      =         0.0000
 1-4 NB =         0.0000  1-4 EEL =         0.0000  VDWAALS    =      5473.0966
 EELEC  =    -42159.1865  EHBOND  =         0.0000  RESTRAINT  =         0.0000
 EKCMT  =      3418.2773  VIRIAL  =      3393.9086  VOLUME     =    115585.8913
                                                    Density    =         0.9857
 DV/DL  =       850.1876
 ------------------------------------------------------------------------------

      R M S  F L U C T U A T I O N S

 NSTEP =   500000   TIME(PS) =    1200.000  TEMP(K) =     2.79  PRESS =   142.1
 Etot   =        73.5902  EKtot   =        63.2600  EPtot      =        64.3746
 BOND   =         1.1476  ANGLE   =         1.0166  DIHED      =         0.0000
 1-4 NB =         0.0000  1-4 EEL =         0.0000  VDWAALS    =        71.6880
 EELEC  =       103.4029  EHBOND  =         0.0000  RESTRAINT  =         0.0000
 EKCMT  =        47.2310  VIRIAL  =       352.4108  VOLUME     =        24.4958
                                                    Density    =         0.0002
 DV/DL  =        24.6419
 ------------------------------------------------------------------------------

      A V E R A G E S   O V E R    1000 S T E P S

 NSTEP =   500000   TIME(PS) =    1200.000  TEMP(K) =   299.14  PRESS =     9.8
 Etot   =    -29889.9470  EKtot   =      6786.5316  EPtot      =    -36676.4786
 BOND   =         1.7719  ANGLE   =         7.8394  DIHED      =         0.0000
 1-4 NB =         0.0000  1-4 EEL =         0.0000  VDWAALS    =      5473.0966
 EELEC  =    -42159.1865  EHBOND  =         0.0000  RESTRAINT  =         0.0000
 EKCMT  =      3418.2773  VIRIAL  =      3393.9086  VOLUME     =    115585.8913
                                                    Density    =         0.9857
 DV/DL  =       850.1876
 ------------------------------------------------------------------------------

      R M S  F L U C T U A T I O N S

 NSTEP =   500000   TIME(PS) =    1200.000  TEMP(K) =     2.79  PRESS =   142.1
 Etot   =        73.5902  EKtot   =        63.2600  EPtot      =        64.3746
 BOND   =         1.1476  ANGLE   =         1.0166  DIHED      =         0.0000
 1-4 NB =         0.0000  1-4 EEL =         0.0000  VDWAALS    =        71.6880
 EELEC  =       103.4029  EHBOND  =         0.0000  RESTRAINT  =         0.0000
 EKCMT  =        47.2310  VIRIAL  =       352.4108  VOLUME     =        24.4958
                                                    Density    =         0.0002
 DV/DL  =        24.6419
 ------------------------------------------------------------------------------

      DV/DL, AVERAGES OVER    1000 STEPS

 NSTEP =   500000   TIME(PS) =    1200.000  TEMP(K) =     2.79  PRESS =     0.0
 Etot   =         0.0000  EKtot   =         0.0000  EPtot      =       850.1876
 BOND   =         0.0000  ANGLE   =         0.0000  DIHED      =         0.0000
 1-4 NB =         0.0000  1-4 EEL =         0.0000  VDWAALS    =         0.0000
 EELEC  =       850.1876  EHBOND  =         0.0000  RESTRAINT  =         0.0000
 EKCMT  =         0.0000  VIRIAL  =         0.0000  VOLUME     =         0.0000
                                                    Density    =         0.0000
 DV/DL  =       850.1876
 ------------------------------------------------------------------------------

      A V E R A G E S   O V E R  500000 S T E P S

 NSTEP =   500000   TIME(PS) =    1200.000  TEMP(K) =   300.17  PRESS =   -10.5
 Etot   =    -29809.4197  EKtot   =      6809.9242  EPtot      =    -36619.3438
 BOND   =         1.4502  ANGLE   =         7.7482  DIHED      =         0.0000
 1-4 NB =         0.0000  1-4 EEL =         0.0000  VDWAALS    =      5442.1128
 EELEC  =    -42070.6551  EHBOND  =         0.0000  RESTRAINT  =         0.0000
 EKCMT  =      3416.1863  VIRIAL  =      3443.8917  VOLUME     =    115665.1564
                                                    Density    =         0.9851
 DV/DL  =       847.0892
 ------------------------------------------------------------------------------

      R M S  F L U C T U A T I O N S

 NSTEP =   500000   TIME(PS) =    1200.000  TEMP(K) =     2.78  PRESS =   191.3
 Etot   =       121.7580  EKtot   =        63.1100  EPtot      =       104.8880
 BOND   =         1.0145  ANGLE   =         0.9404  DIHED      =         0.0000
 1-4 NB =         0.0000  1-4 EEL =         0.0000  VDWAALS    =        94.1272
 EELEC  =       161.3898  EHBOND  =         0.0000  RESTRAINT  =         0.0000
 EKCMT  =        44.8182  VIRIAL  =       481.7884  VOLUME     =       957.0927
                                                    Density    =         0.0076
 DV/DL  =        25.7369
 ------------------------------------------------------------------------------

      A V E R A G E S   O V E R  500000 S T E P S

 NSTEP =   500000   TIME(PS) =    1200.000  TEMP(K) =   300.17  PRESS =   -10.5
 Etot   =    -29809.4197  EKtot   =      6809.9242  EPtot      =    -36619.3438
 BOND   =         1.4502  ANGLE   =         7.7482  DIHED      =         0.0000
 1-4 NB =         0.0000  1-4 EEL =         0.0000  VDWAALS    =      5442.1128
 EELEC  =    -42070.6551  EHBOND  =         0.0000  RESTRAINT  =         0.0000
 EKCMT  =      3416.1863  VIRIAL  =      3443.8917  VOLUME     =    115665.1564
                                                    Density    =         0.9851
 DV/DL  =       847.0892
 ------------------------------------------------------------------------------

      R M S  F L U C T U A T I O N S

 NSTEP =   500000   TIME(PS) =    1200.000  TEMP(K) =     2.78  PRESS =   191.3
 Etot   =       121.7580  EKtot   =        63.1100  EPtot      =       104.8880
 BOND   =         1.0145  ANGLE   =         0.9404  DIHED      =         0.0000
 1-4 NB =         0.0000  1-4 EEL =         0.0000  VDWAALS    =        94.1272
 EELEC  =       161.3898  EHBOND  =         0.0000  RESTRAINT  =         0.0000
 EKCMT  =        44.8182  VIRIAL  =       481.7884  VOLUME     =       957.0927
                                                    Density    =         0.0076
 DV/DL  =        25.7369
 ------------------------------------------------------------------------------

      DV/DL, AVERAGES OVER  500000 STEPS

 NSTEP =   500000   TIME(PS) =    1200.000  TEMP(K) =     2.78  PRESS =     0.0
 Etot   =         0.0000  EKtot   =         0.0000  EPtot      =       847.0892
 BOND   =         0.0000  ANGLE   =         0.0000  DIHED      =         0.0000
 1-4 NB =         0.0000  1-4 EEL =         0.0000  VDWAALS    =         0.0000
 EELEC  =       847.0892  EHBOND  =         0.0000  RESTRAINT  =         0.0000
 EKCMT  =         0.0000  VIRIAL  =         0.0000  VOLUME     =         0.0000
                                                    Density    =         0.0000
 DV/DL  =       847.0892
 ------------------------------------------------------------------------------
