-------------------------------------------------------
          Amber 18 PMEMD                              2018
          -------------------------------------------------------

  [-O]verwriting output

File Assignments:

 Here is the input file:

 &cntrl
   nstlim=500000, nscm=1000,
   ntx=5, irest=1, ntpr=1000,
   tempi=300.0, temp0=300.0, ntt=3, gamma_ln=2.0,
   ntp=1, pres0=1.01325, taup=5.0,
   ntb=2, igb=0, cut=10.0,
   dt=0.002, ig=-1,
   ntc=2, ntf=2,
   iwrap=0,
   ntwr=1000, ntwx=50000, ntave=1000,
   ioutfm=1, ntwv=-1,
   ifsc = 0, icfe=1,
   clambda=0.99078,
   timask1=':1',
   timask2=':2', crgmask = ':2',
/

Note: ig = -1. Setting random seed to   385975 based on wallclock time in
      microseconds.

--------------------------------------------------------------------------------
   1.  RESOURCE   USE:
--------------------------------------------------------------------------------

 getting box info from netcdf restart file
 NATOM  =   11419 NTYPES =       4 NBONH =   11409 MBONA  =       8
 NTHETH =       0 MTHETA =      12 NPHIH =       0 MPHIA  =       0
 NHPARM =       0 NPARM  =       0 NNB   =   15234 NRES   =    3805
 NBONA  =       8 NTHETA =      12 NPHIA =       0 NUMBND =       3
 NUMANG =       1 NPTRA  =       0 NATYP =       4 NPHB   =       1
 IFBOX  =       2 NMXRS  =       5 IFCAP =       0 NEXTRA =       0
 NCOPY  =       0

     BOX TYPE: TRUNCATED OCTAHEDRON

--------------------------------------------------------------------------------
   2.  CONTROL  DATA  FOR  THE  RUN
--------------------------------------------------------------------------------

default_name

General flags:
     imin    =       0, nmropt  =       0

Nature and format of input:
     ntx     =       5, irest   =       1, ntrx    =       1

Nature and format of output:
     ntxo    =       2, ntpr    =    1000, ntrx    =       1, ntwr    =    1000
     iwrap   =       0, ntwx    =   50000, ntwv    =      -1, ntwe    =       0
     ioutfm  =       1, ntwprt  =       0, idecomp =       0, rbornstat=      0

Potential function:
     ntf     =       2, ntb     =       2, igb     =       0, nsnb    =      25
     ipol    =       0, gbsa    =       0, iesp    =       0
     dielc   =   1.00000, cut     =  10.00000, intdiel =   1.00000

Frozen or restrained atoms:
     ibelly  =       0, ntr     =       0

Molecular dynamics:
     nstlim  =    500000, nscm    =      1000, nrespa  =         1
     t       =   0.00000, dt      =   0.00200, vlimit  =  -1.00000

Langevin dynamics temperature regulation:
     ig      =  385975
     temp0   = 300.00000, tempi   = 300.00000, gamma_ln=   2.00000

Pressure regulation:
     ntp     =       1
     pres0   =   1.01325, comp    =  44.60000, taup    =   5.00000

SHAKE:
     ntc     =       2, jfastw  =       0
     tol     =   0.00001

Free energy options:
     icfe    =       1, ifsc    =       0, klambda =       1
     clambda =  0.9908, scalpha =  0.5000, scbeta  = 12.0000
     sceeorder =       2
     dynlmb =  0.0000 logdvdl =       0

Ewald parameters:
     verbose =       0, ew_type =       0, nbflag  =       1, use_pme =       1
     vdwmeth =       1, eedmeth =       1, netfrc  =       1
     Box X =   55.004   Box Y =   55.004   Box Z =   55.004
     Alpha =  109.471   Beta  =  109.471   Gamma =  109.471
     NFFT1 =   56       NFFT2 =   56       NFFT3 =   56
     Cutoff=   10.000   Tol   =0.100E-04
     Ewald Coefficient =  0.27511
     Interpolation order =    4
     TI Mask 1 :1; matches      5 atoms
     TI Mask 2 :2; matches      5 atoms
     TI region 1:   11414 atoms
     TI region 2:   11414 atoms
Removing charge of       1.2430 from atom       6
Removing charge of      -1.0605 from atom       7
Removing charge of      -1.0605 from atom       8
Removing charge of      -1.0605 from atom       9
Removing charge of      -1.0605 from atom      10
Total charge of  -2.99900001 removed from       5 atoms
     Checking for mismatched coordinates.

--------------------------------------------------------------------------------
   3.  ATOMIC COORDINATES AND VELOCITIES
--------------------------------------------------------------------------------

default_name
 begin time read from input coords =   200.000 ps

 Number of triangulated 3-point waters found:     3803

     Sum of charges for TI region  1 =  -2.99900001
     Assuming uniform neutralizing plasma

     Sum of charges for TI region  2 =   0.00000000
     Forcing neutrality...

--------------------------------------------------------------------------------
   4.  RESULTS
 NSTEP =     1000   TIME(PS) =     202.000  TEMP(K) =   300.27  PRESS =  -378.0
 Etot   =    -28917.0038  EKtot   =      6812.1917  EPtot      =    -35729.1955
 BOND   =         1.5377  ANGLE   =         7.1391  DIHED      =         0.0000
 1-4 NB =         0.0000  1-4 EEL =         0.0000  VDWAALS    =      5410.1918
 EELEC  =    -41148.0640  EHBOND  =         0.0000  RESTRAINT  =         0.0000
 EKCMT  =      3428.4481  VIRIAL  =      4460.9045  VOLUME     =    126486.8670
                                                    Density    =         0.9007
 DV/DL  =        89.1020
 ------------------------------------------------------------------------------

      A V E R A G E S   O V E R    1000 S T E P S

 NSTEP =     1000   TIME(PS) =     202.000  TEMP(K) =   299.47  PRESS =  -711.0
 Etot   =    -28875.4389  EKtot   =      6793.9615  EPtot      =    -35669.4003
 BOND   =         1.2162  ANGLE   =         7.6407  DIHED      =         0.0000
 1-4 NB =         0.0000  1-4 EEL =         0.0000  VDWAALS    =      5262.0547
 EELEC  =    -40940.3120  EHBOND  =         0.0000  RESTRAINT  =         0.0000
 EKCMT  =      3403.7067  VIRIAL  =      5357.8131  VOLUME     =    127269.7715
                                                    Density    =         0.8952
 DV/DL  =       119.4939
 ------------------------------------------------------------------------------

      R M S  F L U C T U A T I O N S

 NSTEP =     1000   TIME(PS) =     202.000  TEMP(K) =     2.76  PRESS =   160.3
 Etot   =        81.3507  EKtot   =        62.7267  EPtot      =        88.5906
 BOND   =         0.6579  ANGLE   =         0.7185  DIHED      =         0.0000
 1-4 NB =         0.0000  1-4 EEL =         0.0000  VDWAALS    =        89.7133
 EELEC  =       136.0009  EHBOND  =         0.0000  RESTRAINT  =         0.0000
 EKCMT  =        47.4868  VIRIAL  =       448.8278  VOLUME     =       475.1112
                                                    Density    =         0.0033
 DV/DL  =        20.3227
 ------------------------------------------------------------------------------

      A V E R A G E S   O V E R    1000 S T E P S

 NSTEP =     1000   TIME(PS) =     202.000  TEMP(K) =   299.47  PRESS =  -711.0
 Etot   =    -28875.4389  EKtot   =      6793.9615  EPtot      =    -35669.4003
 BOND   =         1.2162  ANGLE   =         7.6407  DIHED      =         0.0000
 1-4 NB =         0.0000  1-4 EEL =         0.0000  VDWAALS    =      5262.0547
 EELEC  =    -40940.3120  EHBOND  =         0.0000  RESTRAINT  =         0.0000
 EKCMT  =      3403.7067  VIRIAL  =      5357.8131  VOLUME     =    127269.7715
                                                    Density    =         0.8952
 DV/DL  =       119.4939
 ------------------------------------------------------------------------------

      R M S  F L U C T U A T I O N S

 NSTEP =     1000   TIME(PS) =     202.000  TEMP(K) =     2.76  PRESS =   160.3
 Etot   =        81.3507  EKtot   =        62.7267  EPtot      =        88.5906
 BOND   =         0.6579  ANGLE   =         0.7185  DIHED      =         0.0000
 1-4 NB =         0.0000  1-4 EEL =         0.0000  VDWAALS    =        89.7133
 EELEC  =       136.0009  EHBOND  =         0.0000  RESTRAINT  =         0.0000
 EKCMT  =        47.4868  VIRIAL  =       448.8278  VOLUME     =       475.1112
                                                    Density    =         0.0033
 DV/DL  =        20.3227
 ------------------------------------------------------------------------------

      DV/DL, AVERAGES OVER    1000 STEPS

 NSTEP =     1000   TIME(PS) =     202.000  TEMP(K) =     2.76  PRESS =     0.0
 Etot   =         0.0000  EKtot   =         0.0000  EPtot      =       119.4939
 BOND   =         0.0000  ANGLE   =         0.0000  DIHED      =         0.0000
 1-4 NB =         0.0000  1-4 EEL =         0.0000  VDWAALS    =         0.0000
 EELEC  =       119.4939  EHBOND  =         0.0000  RESTRAINT  =         0.0000
 EKCMT  =         0.0000  VIRIAL  =         0.0000  VOLUME     =         0.0000
                                                    Density    =         0.0000
 DV/DL  =       119.4939
 ------------------------------------------------------------------------------

      A V E R A G E S   O V E R    1000 S T E P S

 NSTEP =     2000   TIME(PS) =     204.000  TEMP(K) =   298.85  PRESS =  -566.1
 Etot   =    -29067.0543  EKtot   =      6779.8654  EPtot      =    -35846.9197
 BOND   =         1.7144  ANGLE   =         8.0015  DIHED      =         0.0000
 1-4 NB =         0.0000  1-4 EEL =         0.0000  VDWAALS    =      5330.7259
 EELEC  =    -41187.3616  EHBOND  =         0.0000  RESTRAINT  =         0.0000
 EKCMT  =      3398.9207  VIRIAL  =      4937.0580  VOLUME     =    125882.0427
                                                    Density    =         0.9051
 DV/DL  =       122.7816
 ------------------------------------------------------------------------------

      R M S  F L U C T U A T I O N S

 NSTEP =     2000   TIME(PS) =     204.000  TEMP(K) =     2.93  PRESS =   192.9
 Etot   =        84.5471  EKtot   =        66.5668  EPtot      =        64.7458
 BOND   =         1.1711  ANGLE   =         1.0342  DIHED      =         0.0000
 1-4 NB =         0.0000  1-4 EEL =         0.0000  VDWAALS    =       100.6101
 EELEC  =       130.9305  EHBOND  =         0.0000  RESTRAINT  =         0.0000
 EKCMT  =        41.6215  VIRIAL  =       521.4994  VOLUME     =       382.1670
                                                    Density    =         0.0027
 DV/DL  =        23.2421
 ------------------------------------------------------------------------------

      A V E R A G E S   O V E R    1000 S T E P S

 NSTEP =     2000   TIME(PS) =     204.000  TEMP(K) =   298.85  PRESS =  -566.1
 Etot   =    -29067.0543  EKtot   =      6779.8654  EPtot      =    -35846.9197
 BOND   =         1.7144  ANGLE   =         8.0015  DIHED      =         0.0000
 1-4 NB =         0.0000  1-4 EEL =         0.0000  VDWAALS    =      5330.7259
 EELEC  =    -41187.3616  EHBOND  =         0.0000  RESTRAINT  =         0.0000
 EKCMT  =      3398.9207  VIRIAL  =      4937.0580  VOLUME     =    125882.0427
                                                    Density    =         0.9051
 DV/DL  =       122.7816
 ------------------------------------------------------------------------------

      R M S  F L U C T U A T I O N S

 NSTEP =     2000   TIME(PS) =     204.000  TEMP(K) =     2.93  PRESS =   192.9
 Etot   =        84.5471  EKtot   =        66.5668  EPtot      =        64.7458
 BOND   =         1.1711  ANGLE   =         1.0342  DIHED      =         0.0000
 1-4 NB =         0.0000  1-4 EEL =         0.0000  VDWAALS    =       100.6101
 EELEC  =       130.9305  EHBOND  =         0.0000  RESTRAINT  =         0.0000
 EKCMT  =        41.6215  VIRIAL  =       521.4994  VOLUME     =       382.1670
                                                    Density    =         0.0027
 DV/DL  =        23.2421
 ------------------------------------------------------------------------------

      DV/DL, AVERAGES OVER    1000 STEPS

 NSTEP =     2000   TIME(PS) =     204.000  TEMP(K) =     2.93  PRESS =     0.0
 Etot   =         0.0000  EKtot   =         0.0000  EPtot      =       122.7816
 BOND   =         0.0000  ANGLE   =         0.0000  DIHED      =         0.0000
 1-4 NB =         0.0000  1-4 EEL =         0.0000  VDWAALS    =         0.0000
 EELEC  =       122.7816  EHBOND  =         0.0000  RESTRAINT  =         0.0000
 EKCMT  =         0.0000  VIRIAL  =         0.0000  VOLUME     =         0.0000
                                                    Density    =         0.0000
 DV/DL  =       122.7816
 ------------------------------------------------------------------------------

      A V E R A G E S   O V E R    1000 S T E P S

 NSTEP =   500000   TIME(PS) =    1200.000  TEMP(K) =   299.24  PRESS =    22.8
 Etot   =    -29568.9145  EKtot   =      6788.8963  EPtot      =    -36357.8108
 BOND   =         1.5763  ANGLE   =         7.7738  DIHED      =         0.0000
 1-4 NB =         0.0000  1-4 EEL =         0.0000  VDWAALS    =      5442.9866
 EELEC  =    -41810.1475  EHBOND  =         0.0000  RESTRAINT  =         0.0000
 EKCMT  =      3407.9174  VIRIAL  =      3351.2097  VOLUME     =    115343.1936
                                                    Density    =         0.9878
 DV/DL  =       121.2956
 ------------------------------------------------------------------------------

      R M S  F L U C T U A T I O N S

 NSTEP =   500000   TIME(PS) =    1200.000  TEMP(K) =     2.89  PRESS =   179.5
 Etot   =        83.8156  EKtot   =        65.5071  EPtot      =        70.1957
 BOND   =         0.9204  ANGLE   =         0.7026  DIHED      =         0.0000
 1-4 NB =         0.0000  1-4 EEL =         0.0000  VDWAALS    =        87.9342
 EELEC  =       119.8644  EHBOND  =         0.0000  RESTRAINT  =         0.0000
 EKCMT  =        38.5313  VIRIAL  =       439.5743  VOLUME     =        23.9918
                                                    Density    =         0.0002
 DV/DL  =        23.1112
 ------------------------------------------------------------------------------

      A V E R A G E S   O V E R    1000 S T E P S

 NSTEP =   500000   TIME(PS) =    1200.000  TEMP(K) =   299.24  PRESS =    22.8
 Etot   =    -29568.9145  EKtot   =      6788.8963  EPtot      =    -36357.8108
 BOND   =         1.5763  ANGLE   =         7.7738  DIHED      =         0.0000
 1-4 NB =         0.0000  1-4 EEL =         0.0000  VDWAALS    =      5442.9866
 EELEC  =    -41810.1475  EHBOND  =         0.0000  RESTRAINT  =         0.0000
 EKCMT  =      3407.9174  VIRIAL  =      3351.2097  VOLUME     =    115343.1936
                                                    Density    =         0.9878
 DV/DL  =       121.2956
 ------------------------------------------------------------------------------

      R M S  F L U C T U A T I O N S

 NSTEP =   500000   TIME(PS) =    1200.000  TEMP(K) =     2.89  PRESS =   179.5
 Etot   =        83.8156  EKtot   =        65.5071  EPtot      =        70.1957
 BOND   =         0.9204  ANGLE   =         0.7026  DIHED      =         0.0000
 1-4 NB =         0.0000  1-4 EEL =         0.0000  VDWAALS    =        87.9342
 EELEC  =       119.8644  EHBOND  =         0.0000  RESTRAINT  =         0.0000
 EKCMT  =        38.5313  VIRIAL  =       439.5743  VOLUME     =        23.9918
                                                    Density    =         0.0002
 DV/DL  =        23.1112
 ------------------------------------------------------------------------------

      DV/DL, AVERAGES OVER    1000 STEPS

 NSTEP =   500000   TIME(PS) =    1200.000  TEMP(K) =     2.89  PRESS =     0.0
 Etot   =         0.0000  EKtot   =         0.0000  EPtot      =       121.2956
 BOND   =         0.0000  ANGLE   =         0.0000  DIHED      =         0.0000
 1-4 NB =         0.0000  1-4 EEL =         0.0000  VDWAALS    =         0.0000
 EELEC  =       121.2956  EHBOND  =         0.0000  RESTRAINT  =         0.0000
 EKCMT  =         0.0000  VIRIAL  =         0.0000  VOLUME     =         0.0000
                                                    Density    =         0.0000
 DV/DL  =       121.2956
 ------------------------------------------------------------------------------

      A V E R A G E S   O V E R  500000 S T E P S

 NSTEP =   500000   TIME(PS) =    1200.000  TEMP(K) =   300.05  PRESS =   -10.7
 Etot   =    -29465.3051  EKtot   =      6807.2774  EPtot      =    -36272.5825
 BOND   =         1.2298  ANGLE   =         7.7276  DIHED      =         0.0000
 1-4 NB =         0.0000  1-4 EEL =         0.0000  VDWAALS    =      5424.2392
 EELEC  =    -41705.7790  EHBOND  =         0.0000  RESTRAINT  =         0.0000
 EKCMT  =      3414.9091  VIRIAL  =      3443.2391  VOLUME     =    115896.7418
                                                    Density    =         0.9831
 DV/DL  =       123.5796
 ------------------------------------------------------------------------------

      R M S  F L U C T U A T I O N S

 NSTEP =   500000   TIME(PS) =    1200.000  TEMP(K) =     2.75  PRESS =   189.0
 Etot   =       118.3803  EKtot   =        62.4124  EPtot      =       102.0376
 BOND   =         0.8782  ANGLE   =         0.9440  DIHED      =         0.0000
 1-4 NB =         0.0000  1-4 EEL =         0.0000  VDWAALS    =        94.0785
 EELEC  =       158.4833  EHBOND  =         0.0000  RESTRAINT  =         0.0000
 EKCMT  =        44.4387  VIRIAL  =       475.5470  VOLUME     =      1014.9474
                                                    Density    =         0.0080
 DV/DL  =        23.1693
 ------------------------------------------------------------------------------

      A V E R A G E S   O V E R  500000 S T E P S

 NSTEP =   500000   TIME(PS) =    1200.000  TEMP(K) =   300.05  PRESS =   -10.7
 Etot   =    -29465.3051  EKtot   =      6807.2774  EPtot      =    -36272.5825
 BOND   =         1.2298  ANGLE   =         7.7276  DIHED      =         0.0000
 1-4 NB =         0.0000  1-4 EEL =         0.0000  VDWAALS    =      5424.2392
 EELEC  =    -41705.7790  EHBOND  =         0.0000  RESTRAINT  =         0.0000
 EKCMT  =      3414.9091  VIRIAL  =      3443.2391  VOLUME     =    115896.7418
                                                    Density    =         0.9831
 DV/DL  =       123.5796
 ------------------------------------------------------------------------------

      R M S  F L U C T U A T I O N S

 NSTEP =   500000   TIME(PS) =    1200.000  TEMP(K) =     2.75  PRESS =   189.0
 Etot   =       118.3803  EKtot   =        62.4124  EPtot      =       102.0376
 BOND   =         0.8782  ANGLE   =         0.9440  DIHED      =         0.0000
 1-4 NB =         0.0000  1-4 EEL =         0.0000  VDWAALS    =        94.0785
 EELEC  =       158.4833  EHBOND  =         0.0000  RESTRAINT  =         0.0000
 EKCMT  =        44.4387  VIRIAL  =       475.5470  VOLUME     =      1014.9474
                                                    Density    =         0.0080
 DV/DL  =        23.1693
 ------------------------------------------------------------------------------

      DV/DL, AVERAGES OVER  500000 STEPS

 NSTEP =   500000   TIME(PS) =    1200.000  TEMP(K) =     2.75  PRESS =     0.0
 Etot   =         0.0000  EKtot   =         0.0000  EPtot      =       123.5796
 BOND   =         0.0000  ANGLE   =         0.0000  DIHED      =         0.0000
 1-4 NB =         0.0000  1-4 EEL =         0.0000  VDWAALS    =         0.0000
 EELEC  =       123.5796  EHBOND  =         0.0000  RESTRAINT  =         0.0000
 EKCMT  =         0.0000  VIRIAL  =         0.0000  VOLUME     =         0.0000
                                                    Density    =         0.0000
 DV/DL  =       123.5796
 ------------------------------------------------------------------------------
