-------------------------------------------------------
          Amber 18 PMEMD                              2018
          -------------------------------------------------------

  [-O]verwriting output

File Assignments:

 Here is the input file:

 &cntrl
   nstlim=500000, nscm=1000,
   ntx=5, irest=1, ntpr=1000,
   tempi=300.0, temp0=300.0, ntt=3, gamma_ln=2.0,
   ntp=1, pres0=1.01325, taup=5.0,
   ntb=2, igb=0, cut=10.0,
   dt=0.002, ig=-1,
   ntc=2, ntf=2,
   iwrap=0,
   ntwr=1000, ntwx=50000, ntave=1000,
   ioutfm=1, ntwv=-1,
   ifsc = 0, icfe=1,
   clambda=0.04794,
   timask1=':1',
   timask2=':2', crgmask = ':2',
/

Note: ig = -1. Setting random seed to   909343 based on wallclock time in
      microseconds.

--------------------------------------------------------------------------------
   1.  RESOURCE   USE:
--------------------------------------------------------------------------------

 getting box info from netcdf restart file
 NATOM  =   11419 NTYPES =       4 NBONH =   11409 MBONA  =       8
 NTHETH =       0 MTHETA =      12 NPHIH =       0 MPHIA  =       0
 NHPARM =       0 NPARM  =       0 NNB   =   15234 NRES   =    3805
 NBONA  =       8 NTHETA =      12 NPHIA =       0 NUMBND =       3
 NUMANG =       1 NPTRA  =       0 NATYP =       4 NPHB   =       1
 IFBOX  =       2 NMXRS  =       5 IFCAP =       0 NEXTRA =       0
 NCOPY  =       0

     BOX TYPE: TRUNCATED OCTAHEDRON

--------------------------------------------------------------------------------
   2.  CONTROL  DATA  FOR  THE  RUN
--------------------------------------------------------------------------------

default_name

General flags:
     imin    =       0, nmropt  =       0

Nature and format of input:
     ntx     =       5, irest   =       1, ntrx    =       1

Nature and format of output:
     ntxo    =       2, ntpr    =    1000, ntrx    =       1, ntwr    =    1000
     iwrap   =       0, ntwx    =   50000, ntwv    =      -1, ntwe    =       0
     ioutfm  =       1, ntwprt  =       0, idecomp =       0, rbornstat=      0

Potential function:
     ntf     =       2, ntb     =       2, igb     =       0, nsnb    =      25
     ipol    =       0, gbsa    =       0, iesp    =       0
     dielc   =   1.00000, cut     =  10.00000, intdiel =   1.00000

Frozen or restrained atoms:
     ibelly  =       0, ntr     =       0

Molecular dynamics:
     nstlim  =    500000, nscm    =      1000, nrespa  =         1
     t       =   0.00000, dt      =   0.00200, vlimit  =  -1.00000

Langevin dynamics temperature regulation:
     ig      =  909343
     temp0   = 300.00000, tempi   = 300.00000, gamma_ln=   2.00000

Pressure regulation:
     ntp     =       1
     pres0   =   1.01325, comp    =  44.60000, taup    =   5.00000

SHAKE:
     ntc     =       2, jfastw  =       0
     tol     =   0.00001

Free energy options:
     icfe    =       1, ifsc    =       0, klambda =       1
     clambda =  0.0479, scalpha =  0.5000, scbeta  = 12.0000
     sceeorder =       2
     dynlmb =  0.0000 logdvdl =       0

Ewald parameters:
     verbose =       0, ew_type =       0, nbflag  =       1, use_pme =       1
     vdwmeth =       1, eedmeth =       1, netfrc  =       1
     Box X =   55.004   Box Y =   55.004   Box Z =   55.004
     Alpha =  109.471   Beta  =  109.471   Gamma =  109.471
     NFFT1 =   56       NFFT2 =   56       NFFT3 =   56
     Cutoff=   10.000   Tol   =0.100E-04
     Ewald Coefficient =  0.27511
     Interpolation order =    4
     TI Mask 1 :1; matches      5 atoms
     TI Mask 2 :2; matches      5 atoms
     TI region 1:   11414 atoms
     TI region 2:   11414 atoms
Removing charge of       1.2430 from atom       6
Removing charge of      -1.0605 from atom       7
Removing charge of      -1.0605 from atom       8
Removing charge of      -1.0605 from atom       9
Removing charge of      -1.0605 from atom      10
Total charge of  -2.99900001 removed from       5 atoms
     Checking for mismatched coordinates.

--------------------------------------------------------------------------------
   3.  ATOMIC COORDINATES AND VELOCITIES
--------------------------------------------------------------------------------

default_name
 begin time read from input coords =   200.000 ps

 Number of triangulated 3-point waters found:     3803

     Sum of charges for TI region  1 =  -2.99900001
     Assuming uniform neutralizing plasma

     Sum of charges for TI region  2 =   0.00000000
     Forcing neutrality...

--------------------------------------------------------------------------------
   4.  RESULTS
 NSTEP =     1000   TIME(PS) =     202.000  TEMP(K) =   294.84  PRESS =  -993.5
 Etot   =    -29622.6489  EKtot   =      6689.0351  EPtot      =    -36311.6840
 BOND   =         1.9374  ANGLE   =         7.4309  DIHED      =         0.0000
 1-4 NB =         0.0000  1-4 EEL =         0.0000  VDWAALS    =      5197.2430
 EELEC  =    -41518.2954  EHBOND  =         0.0000  RESTRAINT  =         0.0000
 EKCMT  =      3390.2393  VIRIAL  =      6095.8934  VOLUME     =    126131.2714
                                                    Density    =         0.9033
 DV/DL  =      1129.2871
 ------------------------------------------------------------------------------

      A V E R A G E S   O V E R    1000 S T E P S

 NSTEP =     1000   TIME(PS) =     202.000  TEMP(K) =   300.30  PRESS =  -869.4
 Etot   =    -29403.5175  EKtot   =      6812.8395  EPtot      =    -36216.3571
 BOND   =         2.2659  ANGLE   =         7.8531  DIHED      =         0.0000
 1-4 NB =         0.0000  1-4 EEL =         0.0000  VDWAALS    =      5267.0208
 EELEC  =    -41493.4969  EHBOND  =         0.0000  RESTRAINT  =         0.0000
 EKCMT  =      3423.3242  VIRIAL  =      5809.4751  VOLUME     =    127088.8119
                                                    Density    =         0.8965
 DV/DL  =      1120.9422
 ------------------------------------------------------------------------------

      R M S  F L U C T U A T I O N S

 NSTEP =     1000   TIME(PS) =     202.000  TEMP(K) =     2.69  PRESS =   155.2
 Etot   =       107.9696  EKtot   =        60.9199  EPtot      =        97.2587
 BOND   =         1.5661  ANGLE   =         0.9448  DIHED      =         0.0000
 1-4 NB =         0.0000  1-4 EEL =         0.0000  VDWAALS    =        86.9621
 EELEC  =       152.5740  EHBOND  =         0.0000  RESTRAINT  =         0.0000
 EKCMT  =        50.0624  VIRIAL  =       427.2651  VOLUME     =       556.5010
                                                    Density    =         0.0039
 DV/DL  =        21.4151
 ------------------------------------------------------------------------------

      A V E R A G E S   O V E R    1000 S T E P S

 NSTEP =     1000   TIME(PS) =     202.000  TEMP(K) =   300.30  PRESS =  -869.4
 Etot   =    -29403.5175  EKtot   =      6812.8395  EPtot      =    -36216.3571
 BOND   =         2.2659  ANGLE   =         7.8531  DIHED      =         0.0000
 1-4 NB =         0.0000  1-4 EEL =         0.0000  VDWAALS    =      5267.0208
 EELEC  =    -41493.4969  EHBOND  =         0.0000  RESTRAINT  =         0.0000
 EKCMT  =      3423.3242  VIRIAL  =      5809.4751  VOLUME     =    127088.8119
                                                    Density    =         0.8965
 DV/DL  =      1120.9422
 ------------------------------------------------------------------------------

      R M S  F L U C T U A T I O N S

 NSTEP =     1000   TIME(PS) =     202.000  TEMP(K) =     2.69  PRESS =   155.2
 Etot   =       107.9696  EKtot   =        60.9199  EPtot      =        97.2587
 BOND   =         1.5661  ANGLE   =         0.9448  DIHED      =         0.0000
 1-4 NB =         0.0000  1-4 EEL =         0.0000  VDWAALS    =        86.9621
 EELEC  =       152.5740  EHBOND  =         0.0000  RESTRAINT  =         0.0000
 EKCMT  =        50.0624  VIRIAL  =       427.2651  VOLUME     =       556.5010
                                                    Density    =         0.0039
 DV/DL  =        21.4151
 ------------------------------------------------------------------------------

      DV/DL, AVERAGES OVER    1000 STEPS

 NSTEP =     1000   TIME(PS) =     202.000  TEMP(K) =     2.69  PRESS =     0.0
 Etot   =         0.0000  EKtot   =         0.0000  EPtot      =      1120.9422
 BOND   =         0.0000  ANGLE   =         0.0000  DIHED      =         0.0000
 1-4 NB =         0.0000  1-4 EEL =         0.0000  VDWAALS    =         0.0000
 EELEC  =      1120.9422  EHBOND  =         0.0000  RESTRAINT  =         0.0000
 EKCMT  =         0.0000  VIRIAL  =         0.0000  VOLUME     =         0.0000
                                                    Density    =         0.0000
 DV/DL  =      1120.9422
 ------------------------------------------------------------------------------

      A V E R A G E S   O V E R    1000 S T E P S

 NSTEP =     2000   TIME(PS) =     204.000  TEMP(K) =   298.26  PRESS =  -814.4
 Etot   =    -29598.5728  EKtot   =      6766.5404  EPtot      =    -36365.1133
 BOND   =         2.4111  ANGLE   =         7.9758  DIHED      =         0.0000
 1-4 NB =         0.0000  1-4 EEL =         0.0000  VDWAALS    =      5297.3826
 EELEC  =    -41672.8828  EHBOND  =         0.0000  RESTRAINT  =         0.0000
 EKCMT  =      3404.5445  VIRIAL  =      5606.4569  VOLUME     =    125167.0104
                                                    Density    =         0.9103
 DV/DL  =      1114.5470
 ------------------------------------------------------------------------------

      R M S  F L U C T U A T I O N S

 NSTEP =     2000   TIME(PS) =     204.000  TEMP(K) =     2.45  PRESS =   157.4
 Etot   =        78.5930  EKtot   =        55.5955  EPtot      =        76.9619
 BOND   =         1.6233  ANGLE   =         1.0197  DIHED      =         0.0000
 1-4 NB =         0.0000  1-4 EEL =         0.0000  VDWAALS    =        82.8945
 EELEC  =       135.6959  EHBOND  =         0.0000  RESTRAINT  =         0.0000
 EKCMT  =        37.8481  VIRIAL  =       424.1053  VOLUME     =       537.8503
                                                    Density    =         0.0039
 DV/DL  =        25.4996
 ------------------------------------------------------------------------------

      A V E R A G E S   O V E R    1000 S T E P S

 NSTEP =     2000   TIME(PS) =     204.000  TEMP(K) =   298.26  PRESS =  -814.4
 Etot   =    -29598.5728  EKtot   =      6766.5404  EPtot      =    -36365.1133
 BOND   =         2.4111  ANGLE   =         7.9758  DIHED      =         0.0000
 1-4 NB =         0.0000  1-4 EEL =         0.0000  VDWAALS    =      5297.3826
 EELEC  =    -41672.8828  EHBOND  =         0.0000  RESTRAINT  =         0.0000
 EKCMT  =      3404.5445  VIRIAL  =      5606.4569  VOLUME     =    125167.0104
                                                    Density    =         0.9103
 DV/DL  =      1114.5470
 ------------------------------------------------------------------------------

      R M S  F L U C T U A T I O N S

 NSTEP =     2000   TIME(PS) =     204.000  TEMP(K) =     2.45  PRESS =   157.4
 Etot   =        78.5930  EKtot   =        55.5955  EPtot      =        76.9619
 BOND   =         1.6233  ANGLE   =         1.0197  DIHED      =         0.0000
 1-4 NB =         0.0000  1-4 EEL =         0.0000  VDWAALS    =        82.8945
 EELEC  =       135.6959  EHBOND  =         0.0000  RESTRAINT  =         0.0000
 EKCMT  =        37.8481  VIRIAL  =       424.1053  VOLUME     =       537.8503
                                                    Density    =         0.0039
 DV/DL  =        25.4996
 ------------------------------------------------------------------------------

      DV/DL, AVERAGES OVER    1000 STEPS

 NSTEP =     2000   TIME(PS) =     204.000  TEMP(K) =     2.45  PRESS =     0.0
 Etot   =         0.0000  EKtot   =         0.0000  EPtot      =      1114.5470
 BOND   =         0.0000  ANGLE   =         0.0000  DIHED      =         0.0000
 1-4 NB =         0.0000  1-4 EEL =         0.0000  VDWAALS    =         0.0000
 EELEC  =      1114.5470  EHBOND  =         0.0000  RESTRAINT  =         0.0000
 EKCMT  =         0.0000  VIRIAL  =         0.0000  VOLUME     =         0.0000
                                                    Density    =         0.0000
 DV/DL  =      1114.5470
 ------------------------------------------------------------------------------

      A V E R A G E S   O V E R    1000 S T E P S

 NSTEP =   500000   TIME(PS) =    1200.000  TEMP(K) =   298.18  PRESS =    20.5
 Etot   =    -30283.7404  EKtot   =      6764.7968  EPtot      =    -37048.5371
 BOND   =         2.8057  ANGLE   =         7.9577  DIHED      =         0.0000
 1-4 NB =         0.0000  1-4 EEL =         0.0000  VDWAALS    =      5540.0690
 EELEC  =    -42599.3696  EHBOND  =         0.0000  RESTRAINT  =         0.0000
 EKCMT  =      3411.2770  VIRIAL  =      3360.0420  VOLUME     =    115546.7336
                                                    Density    =         0.9860
 DV/DL  =      1138.0084
 ------------------------------------------------------------------------------

      R M S  F L U C T U A T I O N S

 NSTEP =   500000   TIME(PS) =    1200.000  TEMP(K) =     2.64  PRESS =   175.6
 Etot   =       109.5949  EKtot   =        59.8354  EPtot      =       101.8238
 BOND   =         1.5346  ANGLE   =         1.0957  DIHED      =         0.0000
 1-4 NB =         0.0000  1-4 EEL =         0.0000  VDWAALS    =        95.0501
 EELEC  =       159.0856  EHBOND  =         0.0000  RESTRAINT  =         0.0000
 EKCMT  =        46.0140  VIRIAL  =       446.7259  VOLUME     =        26.0745
                                                    Density    =         0.0002
 DV/DL  =        22.2618
 ------------------------------------------------------------------------------

      A V E R A G E S   O V E R    1000 S T E P S

 NSTEP =   500000   TIME(PS) =    1200.000  TEMP(K) =   298.18  PRESS =    20.5
 Etot   =    -30283.7404  EKtot   =      6764.7968  EPtot      =    -37048.5371
 BOND   =         2.8057  ANGLE   =         7.9577  DIHED      =         0.0000
 1-4 NB =         0.0000  1-4 EEL =         0.0000  VDWAALS    =      5540.0690
 EELEC  =    -42599.3696  EHBOND  =         0.0000  RESTRAINT  =         0.0000
 EKCMT  =      3411.2770  VIRIAL  =      3360.0420  VOLUME     =    115546.7336
                                                    Density    =         0.9860
 DV/DL  =      1138.0084
 ------------------------------------------------------------------------------

      R M S  F L U C T U A T I O N S

 NSTEP =   500000   TIME(PS) =    1200.000  TEMP(K) =     2.64  PRESS =   175.6
 Etot   =       109.5949  EKtot   =        59.8354  EPtot      =       101.8238
 BOND   =         1.5346  ANGLE   =         1.0957  DIHED      =         0.0000
 1-4 NB =         0.0000  1-4 EEL =         0.0000  VDWAALS    =        95.0501
 EELEC  =       159.0856  EHBOND  =         0.0000  RESTRAINT  =         0.0000
 EKCMT  =        46.0140  VIRIAL  =       446.7259  VOLUME     =        26.0745
                                                    Density    =         0.0002
 DV/DL  =        22.2618
 ------------------------------------------------------------------------------

      DV/DL, AVERAGES OVER    1000 STEPS

 NSTEP =   500000   TIME(PS) =    1200.000  TEMP(K) =     2.64  PRESS =     0.0
 Etot   =         0.0000  EKtot   =         0.0000  EPtot      =      1138.0084
 BOND   =         0.0000  ANGLE   =         0.0000  DIHED      =         0.0000
 1-4 NB =         0.0000  1-4 EEL =         0.0000  VDWAALS    =         0.0000
 EELEC  =      1138.0084  EHBOND  =         0.0000  RESTRAINT  =         0.0000
 EKCMT  =         0.0000  VIRIAL  =         0.0000  VOLUME     =         0.0000
                                                    Density    =         0.0000
 DV/DL  =      1138.0084
 ------------------------------------------------------------------------------

      A V E R A G E S   O V E R  500000 S T E P S

 NSTEP =   500000   TIME(PS) =    1200.000  TEMP(K) =   300.13  PRESS =   -10.5
 Etot   =    -30094.5517  EKtot   =      6809.0378  EPtot      =    -36903.5895
 BOND   =         2.6432  ANGLE   =         7.9630  DIHED      =         0.0000
 1-4 NB =         0.0000  1-4 EEL =         0.0000  VDWAALS    =      5465.0763
 EELEC  =    -42379.2720  EHBOND  =         0.0000  RESTRAINT  =         0.0000
 EKCMT  =      3415.4719  VIRIAL  =      3443.3043  VOLUME     =    115678.7745
                                                    Density    =         0.9849
 DV/DL  =      1132.3061
 ------------------------------------------------------------------------------

      R M S  F L U C T U A T I O N S

 NSTEP =   500000   TIME(PS) =    1200.000  TEMP(K) =     2.80  PRESS =   195.0
 Etot   =       119.5350  EKtot   =        63.5115  EPtot      =       101.9349
 BOND   =         1.5832  ANGLE   =         1.0797  DIHED      =         0.0000
 1-4 NB =         0.0000  1-4 EEL =         0.0000  VDWAALS    =        93.8133
 EELEC  =       157.7059  EHBOND  =         0.0000  RESTRAINT  =         0.0000
 EKCMT  =        45.2842  VIRIAL  =       491.2077  VOLUME     =       888.8161
                                                    Density    =         0.0071
 DV/DL  =        24.4819
 ------------------------------------------------------------------------------

      A V E R A G E S   O V E R  500000 S T E P S

 NSTEP =   500000   TIME(PS) =    1200.000  TEMP(K) =   300.13  PRESS =   -10.5
 Etot   =    -30094.5517  EKtot   =      6809.0378  EPtot      =    -36903.5895
 BOND   =         2.6432  ANGLE   =         7.9630  DIHED      =         0.0000
 1-4 NB =         0.0000  1-4 EEL =         0.0000  VDWAALS    =      5465.0763
 EELEC  =    -42379.2720  EHBOND  =         0.0000  RESTRAINT  =         0.0000
 EKCMT  =      3415.4719  VIRIAL  =      3443.3043  VOLUME     =    115678.7745
                                                    Density    =         0.9849
 DV/DL  =      1132.3061
 ------------------------------------------------------------------------------

      R M S  F L U C T U A T I O N S

 NSTEP =   500000   TIME(PS) =    1200.000  TEMP(K) =     2.80  PRESS =   195.0
 Etot   =       119.5350  EKtot   =        63.5115  EPtot      =       101.9349
 BOND   =         1.5832  ANGLE   =         1.0797  DIHED      =         0.0000
 1-4 NB =         0.0000  1-4 EEL =         0.0000  VDWAALS    =        93.8133
 EELEC  =       157.7059  EHBOND  =         0.0000  RESTRAINT  =         0.0000
 EKCMT  =        45.2842  VIRIAL  =       491.2077  VOLUME     =       888.8161
                                                    Density    =         0.0071
 DV/DL  =        24.4819
 ------------------------------------------------------------------------------

      DV/DL, AVERAGES OVER  500000 STEPS

 NSTEP =   500000   TIME(PS) =    1200.000  TEMP(K) =     2.80  PRESS =     0.0
 Etot   =         0.0000  EKtot   =         0.0000  EPtot      =      1132.3061
 BOND   =         0.0000  ANGLE   =         0.0000  DIHED      =         0.0000
 1-4 NB =         0.0000  1-4 EEL =         0.0000  VDWAALS    =         0.0000
 EELEC  =      1132.3061  EHBOND  =         0.0000  RESTRAINT  =         0.0000
 EKCMT  =         0.0000  VIRIAL  =         0.0000  VOLUME     =         0.0000
                                                    Density    =         0.0000
 DV/DL  =      1132.3061
 ------------------------------------------------------------------------------
