-------------------------------------------------------
          Amber 18 PMEMD                              2018
          -------------------------------------------------------

  [-O]verwriting output

File Assignments:

 Here is the input file:

 &cntrl
   nstlim=500000, nscm=1000,
   ntx=5, irest=1, ntpr=1000,
   tempi=300.0, temp0=300.0, ntt=3, gamma_ln=2.0,
   ntp=1, pres0=1.01325, taup=5.0,
   ntb=2, igb=0, cut=10.0,
   dt=0.002, ig=-1,
   ntc=2, ntf=2,
   iwrap=0,
   ntwr=1000, ntwx=50000, ntave=1000,
   ioutfm=1, ntwv=-1,
   ifsc = 0, icfe=1,
   clambda=0.00922,
   timask1=':1',
   timask2=':2', crgmask = ':2',
/

Note: ig = -1. Setting random seed to   198594 based on wallclock time in
      microseconds.

--------------------------------------------------------------------------------
   1.  RESOURCE   USE:
--------------------------------------------------------------------------------

 getting box info from netcdf restart file
 NATOM  =   11419 NTYPES =       4 NBONH =   11409 MBONA  =       8
 NTHETH =       0 MTHETA =      12 NPHIH =       0 MPHIA  =       0
 NHPARM =       0 NPARM  =       0 NNB   =   15234 NRES   =    3805
 NBONA  =       8 NTHETA =      12 NPHIA =       0 NUMBND =       3
 NUMANG =       1 NPTRA  =       0 NATYP =       4 NPHB   =       1
 IFBOX  =       2 NMXRS  =       5 IFCAP =       0 NEXTRA =       0
 NCOPY  =       0

     BOX TYPE: TRUNCATED OCTAHEDRON

--------------------------------------------------------------------------------
   2.  CONTROL  DATA  FOR  THE  RUN
--------------------------------------------------------------------------------

default_name

General flags:
     imin    =       0, nmropt  =       0

Nature and format of input:
     ntx     =       5, irest   =       1, ntrx    =       1

Nature and format of output:
     ntxo    =       2, ntpr    =    1000, ntrx    =       1, ntwr    =    1000
     iwrap   =       0, ntwx    =   50000, ntwv    =      -1, ntwe    =       0
     ioutfm  =       1, ntwprt  =       0, idecomp =       0, rbornstat=      0

Potential function:
     ntf     =       2, ntb     =       2, igb     =       0, nsnb    =      25
     ipol    =       0, gbsa    =       0, iesp    =       0
     dielc   =   1.00000, cut     =  10.00000, intdiel =   1.00000

Frozen or restrained atoms:
     ibelly  =       0, ntr     =       0

Molecular dynamics:
     nstlim  =    500000, nscm    =      1000, nrespa  =         1
     t       =   0.00000, dt      =   0.00200, vlimit  =  -1.00000

Langevin dynamics temperature regulation:
     ig      =  198594
     temp0   = 300.00000, tempi   = 300.00000, gamma_ln=   2.00000

Pressure regulation:
     ntp     =       1
     pres0   =   1.01325, comp    =  44.60000, taup    =   5.00000

SHAKE:
     ntc     =       2, jfastw  =       0
     tol     =   0.00001

Free energy options:
     icfe    =       1, ifsc    =       0, klambda =       1
     clambda =  0.0092, scalpha =  0.5000, scbeta  = 12.0000
     sceeorder =       2
     dynlmb =  0.0000 logdvdl =       0

Ewald parameters:
     verbose =       0, ew_type =       0, nbflag  =       1, use_pme =       1
     vdwmeth =       1, eedmeth =       1, netfrc  =       1
     Box X =   55.004   Box Y =   55.004   Box Z =   55.004
     Alpha =  109.471   Beta  =  109.471   Gamma =  109.471
     NFFT1 =   56       NFFT2 =   56       NFFT3 =   56
     Cutoff=   10.000   Tol   =0.100E-04
     Ewald Coefficient =  0.27511
     Interpolation order =    4
     TI Mask 1 :1; matches      5 atoms
     TI Mask 2 :2; matches      5 atoms
     TI region 1:   11414 atoms
     TI region 2:   11414 atoms
Removing charge of       1.2430 from atom       6
Removing charge of      -1.0605 from atom       7
Removing charge of      -1.0605 from atom       8
Removing charge of      -1.0605 from atom       9
Removing charge of      -1.0605 from atom      10
Total charge of  -2.99900001 removed from       5 atoms
     Checking for mismatched coordinates.

--------------------------------------------------------------------------------
   3.  ATOMIC COORDINATES AND VELOCITIES
--------------------------------------------------------------------------------

default_name
 begin time read from input coords =   200.000 ps

 Number of triangulated 3-point waters found:     3803

     Sum of charges for TI region  1 =  -2.99900001
     Assuming uniform neutralizing plasma

     Sum of charges for TI region  2 =   0.00000000
     Forcing neutrality...

--------------------------------------------------------------------------------
   4.  RESULTS
 NSTEP =     1000   TIME(PS) =     202.000  TEMP(K) =   297.78  PRESS =  -944.3
 Etot   =    -29581.0973  EKtot   =      6755.6055  EPtot      =    -36336.7028
 BOND   =         1.6947  ANGLE   =         7.9438  DIHED      =         0.0000
 1-4 NB =         0.0000  1-4 EEL =         0.0000  VDWAALS    =      5292.0752
 EELEC  =    -41638.4165  EHBOND  =         0.0000  RESTRAINT  =         0.0000
 EKCMT  =      3385.2187  VIRIAL  =      5947.1804  VOLUME     =    125651.1321
                                                    Density    =         0.9067
 DV/DL  =      1139.9130
 ------------------------------------------------------------------------------

      A V E R A G E S   O V E R    1000 S T E P S

 NSTEP =     1000   TIME(PS) =     202.000  TEMP(K) =   299.44  PRESS = -1083.1
 Etot   =    -29427.6099  EKtot   =      6793.3873  EPtot      =    -36220.9972
 BOND   =         3.2764  ANGLE   =         7.9175  DIHED      =         0.0000
 1-4 NB =         0.0000  1-4 EEL =         0.0000  VDWAALS    =      5207.9097
 EELEC  =    -41440.1007  EHBOND  =         0.0000  RESTRAINT  =         0.0000
 EKCMT  =      3397.3505  VIRIAL  =      6364.4631  VOLUME     =    126806.3737
                                                    Density    =         0.8985
 DV/DL  =      1172.2893
 ------------------------------------------------------------------------------

      R M S  F L U C T U A T I O N S

 NSTEP =     1000   TIME(PS) =     202.000  TEMP(K) =     2.39  PRESS =   168.6
 Etot   =        74.7010  EKtot   =        54.1395  EPtot      =        71.4525
 BOND   =         2.0957  ANGLE   =         0.9555  DIHED      =         0.0000
 1-4 NB =         0.0000  1-4 EEL =         0.0000  VDWAALS    =        88.1918
 EELEC  =       137.4045  EHBOND  =         0.0000  RESTRAINT  =         0.0000
 EKCMT  =        40.4433  VIRIAL  =       472.9828  VOLUME     =       698.4488
                                                    Density    =         0.0049
 DV/DL  =        20.7464
 ------------------------------------------------------------------------------

      A V E R A G E S   O V E R    1000 S T E P S

 NSTEP =     1000   TIME(PS) =     202.000  TEMP(K) =   299.44  PRESS = -1083.1
 Etot   =    -29427.6099  EKtot   =      6793.3873  EPtot      =    -36220.9972
 BOND   =         3.2764  ANGLE   =         7.9175  DIHED      =         0.0000
 1-4 NB =         0.0000  1-4 EEL =         0.0000  VDWAALS    =      5207.9097
 EELEC  =    -41440.1007  EHBOND  =         0.0000  RESTRAINT  =         0.0000
 EKCMT  =      3397.3505  VIRIAL  =      6364.4631  VOLUME     =    126806.3737
                                                    Density    =         0.8985
 DV/DL  =      1172.2893
 ------------------------------------------------------------------------------

      R M S  F L U C T U A T I O N S

 NSTEP =     1000   TIME(PS) =     202.000  TEMP(K) =     2.39  PRESS =   168.6
 Etot   =        74.7010  EKtot   =        54.1395  EPtot      =        71.4525
 BOND   =         2.0957  ANGLE   =         0.9555  DIHED      =         0.0000
 1-4 NB =         0.0000  1-4 EEL =         0.0000  VDWAALS    =        88.1918
 EELEC  =       137.4045  EHBOND  =         0.0000  RESTRAINT  =         0.0000
 EKCMT  =        40.4433  VIRIAL  =       472.9828  VOLUME     =       698.4488
                                                    Density    =         0.0049
 DV/DL  =        20.7464
 ------------------------------------------------------------------------------

      DV/DL, AVERAGES OVER    1000 STEPS

 NSTEP =     1000   TIME(PS) =     202.000  TEMP(K) =     2.39  PRESS =     0.0
 Etot   =         0.0000  EKtot   =         0.0000  EPtot      =      1172.2893
 BOND   =         0.0000  ANGLE   =         0.0000  DIHED      =         0.0000
 1-4 NB =         0.0000  1-4 EEL =         0.0000  VDWAALS    =         0.0000
 EELEC  =      1172.2893  EHBOND  =         0.0000  RESTRAINT  =         0.0000
 EKCMT  =         0.0000  VIRIAL  =         0.0000  VOLUME     =         0.0000
                                                    Density    =         0.0000
 DV/DL  =      1172.2893
 ------------------------------------------------------------------------------

      A V E R A G E S   O V E R    1000 S T E P S

 NSTEP =     2000   TIME(PS) =     204.000  TEMP(K) =   298.78  PRESS =  -931.0
 Etot   =    -29609.3922  EKtot   =      6778.4674  EPtot      =    -36387.8596
 BOND   =         2.6130  ANGLE   =         8.1648  DIHED      =         0.0000
 1-4 NB =         0.0000  1-4 EEL =         0.0000  VDWAALS    =      5261.7797
 EELEC  =    -41660.4171  EHBOND  =         0.0000  RESTRAINT  =         0.0000
 EKCMT  =      3395.2066  VIRIAL  =      5900.1454  VOLUME     =    124586.3131
                                                    Density    =         0.9145
 DV/DL  =      1165.3397
 ------------------------------------------------------------------------------

      R M S  F L U C T U A T I O N S

 NSTEP =     2000   TIME(PS) =     204.000  TEMP(K) =     2.63  PRESS =   180.5
 Etot   =        76.3373  EKtot   =        59.7091  EPtot      =        80.4584
 BOND   =         1.5518  ANGLE   =         1.1615  DIHED      =         0.0000
 1-4 NB =         0.0000  1-4 EEL =         0.0000  VDWAALS    =        98.5796
 EELEC  =       134.1030  EHBOND  =         0.0000  RESTRAINT  =         0.0000
 EKCMT  =        42.3969  VIRIAL  =       486.2033  VOLUME     =       601.4540
                                                    Density    =         0.0044
 DV/DL  =        22.6128
 ------------------------------------------------------------------------------

      A V E R A G E S   O V E R    1000 S T E P S

 NSTEP =     2000   TIME(PS) =     204.000  TEMP(K) =   298.78  PRESS =  -931.0
 Etot   =    -29609.3922  EKtot   =      6778.4674  EPtot      =    -36387.8596
 BOND   =         2.6130  ANGLE   =         8.1648  DIHED      =         0.0000
 1-4 NB =         0.0000  1-4 EEL =         0.0000  VDWAALS    =      5261.7797
 EELEC  =    -41660.4171  EHBOND  =         0.0000  RESTRAINT  =         0.0000
 EKCMT  =      3395.2066  VIRIAL  =      5900.1454  VOLUME     =    124586.3131
                                                    Density    =         0.9145
 DV/DL  =      1165.3397
 ------------------------------------------------------------------------------

      R M S  F L U C T U A T I O N S

 NSTEP =     2000   TIME(PS) =     204.000  TEMP(K) =     2.63  PRESS =   180.5
 Etot   =        76.3373  EKtot   =        59.7091  EPtot      =        80.4584
 BOND   =         1.5518  ANGLE   =         1.1615  DIHED      =         0.0000
 1-4 NB =         0.0000  1-4 EEL =         0.0000  VDWAALS    =        98.5796
 EELEC  =       134.1030  EHBOND  =         0.0000  RESTRAINT  =         0.0000
 EKCMT  =        42.3969  VIRIAL  =       486.2033  VOLUME     =       601.4540
                                                    Density    =         0.0044
 DV/DL  =        22.6128
 ------------------------------------------------------------------------------

      DV/DL, AVERAGES OVER    1000 STEPS

 NSTEP =     2000   TIME(PS) =     204.000  TEMP(K) =     2.63  PRESS =     0.0
 Etot   =         0.0000  EKtot   =         0.0000  EPtot      =      1165.3397
 BOND   =         0.0000  ANGLE   =         0.0000  DIHED      =         0.0000
 1-4 NB =         0.0000  1-4 EEL =         0.0000  VDWAALS    =         0.0000
 EELEC  =      1165.3397  EHBOND  =         0.0000  RESTRAINT  =         0.0000
 EKCMT  =         0.0000  VIRIAL  =         0.0000  VOLUME     =         0.0000
                                                    Density    =         0.0000
 DV/DL  =      1165.3397
 ------------------------------------------------------------------------------

      A V E R A G E S   O V E R    1000 S T E P S

 NSTEP =   500000   TIME(PS) =    1200.000  TEMP(K) =   301.06  PRESS =     5.0
 Etot   =    -30070.0238  EKtot   =      6830.0540  EPtot      =    -36900.0779
 BOND   =         3.0912  ANGLE   =         7.8500  DIHED      =         0.0000
 1-4 NB =         0.0000  1-4 EEL =         0.0000  VDWAALS    =      5458.2281
 EELEC  =    -42369.2471  EHBOND  =         0.0000  RESTRAINT  =         0.0000
 EKCMT  =      3407.1609  VIRIAL  =      3394.6121  VOLUME     =    115684.8855
                                                    Density    =         0.9848
 DV/DL  =      1163.9674
 ------------------------------------------------------------------------------

      R M S  F L U C T U A T I O N S

 NSTEP =   500000   TIME(PS) =    1200.000  TEMP(K) =     2.27  PRESS =   161.1
 Etot   =        74.2029  EKtot   =        51.4574  EPtot      =        82.4830
 BOND   =         1.6538  ANGLE   =         0.9802  DIHED      =         0.0000
 1-4 NB =         0.0000  1-4 EEL =         0.0000  VDWAALS    =        78.5124
 EELEC  =       125.7974  EHBOND  =         0.0000  RESTRAINT  =         0.0000
 EKCMT  =        38.5564  VIRIAL  =       402.5378  VOLUME     =        30.6808
                                                    Density    =         0.0003
 DV/DL  =        21.8408
 ------------------------------------------------------------------------------

      A V E R A G E S   O V E R    1000 S T E P S

 NSTEP =   500000   TIME(PS) =    1200.000  TEMP(K) =   301.06  PRESS =     5.0
 Etot   =    -30070.0238  EKtot   =      6830.0540  EPtot      =    -36900.0779
 BOND   =         3.0912  ANGLE   =         7.8500  DIHED      =         0.0000
 1-4 NB =         0.0000  1-4 EEL =         0.0000  VDWAALS    =      5458.2281
 EELEC  =    -42369.2471  EHBOND  =         0.0000  RESTRAINT  =         0.0000
 EKCMT  =      3407.1609  VIRIAL  =      3394.6121  VOLUME     =    115684.8855
                                                    Density    =         0.9848
 DV/DL  =      1163.9674
 ------------------------------------------------------------------------------

      R M S  F L U C T U A T I O N S

 NSTEP =   500000   TIME(PS) =    1200.000  TEMP(K) =     2.27  PRESS =   161.1
 Etot   =        74.2029  EKtot   =        51.4574  EPtot      =        82.4830
 BOND   =         1.6538  ANGLE   =         0.9802  DIHED      =         0.0000
 1-4 NB =         0.0000  1-4 EEL =         0.0000  VDWAALS    =        78.5124
 EELEC  =       125.7974  EHBOND  =         0.0000  RESTRAINT  =         0.0000
 EKCMT  =        38.5564  VIRIAL  =       402.5378  VOLUME     =        30.6808
                                                    Density    =         0.0003
 DV/DL  =        21.8408
 ------------------------------------------------------------------------------

      DV/DL, AVERAGES OVER    1000 STEPS

 NSTEP =   500000   TIME(PS) =    1200.000  TEMP(K) =     2.27  PRESS =     0.0
 Etot   =         0.0000  EKtot   =         0.0000  EPtot      =      1163.9674
 BOND   =         0.0000  ANGLE   =         0.0000  DIHED      =         0.0000
 1-4 NB =         0.0000  1-4 EEL =         0.0000  VDWAALS    =         0.0000
 EELEC  =      1163.9674  EHBOND  =         0.0000  RESTRAINT  =         0.0000
 EKCMT  =         0.0000  VIRIAL  =         0.0000  VOLUME     =         0.0000
                                                    Density    =         0.0000
 DV/DL  =      1163.9674
 ------------------------------------------------------------------------------

      A V E R A G E S   O V E R  500000 S T E P S

 NSTEP =   500000   TIME(PS) =    1200.000  TEMP(K) =   299.96  PRESS =   -10.4
 Etot   =    -30157.5569  EKtot   =      6805.1018  EPtot      =    -36962.6588
 BOND   =         2.9943  ANGLE   =         8.0375  DIHED      =         0.0000
 1-4 NB =         0.0000  1-4 EEL =         0.0000  VDWAALS    =      5469.2439
 EELEC  =    -42442.9344  EHBOND  =         0.0000  RESTRAINT  =         0.0000
 EKCMT  =      3412.5776  VIRIAL  =      3440.0411  VOLUME     =    115591.0951
                                                    Density    =         0.9857
 DV/DL  =      1172.0574
 ------------------------------------------------------------------------------

      R M S  F L U C T U A T I O N S

 NSTEP =   500000   TIME(PS) =    1200.000  TEMP(K) =     2.81  PRESS =   194.9
 Etot   =       122.6422  EKtot   =        63.6488  EPtot      =       105.1110
 BOND   =         1.7082  ANGLE   =         1.1269  DIHED      =         0.0000
 1-4 NB =         0.0000  1-4 EEL =         0.0000  VDWAALS    =        94.3568
 EELEC  =       163.2163  EHBOND  =         0.0000  RESTRAINT  =         0.0000
 EKCMT  =        45.2399  VIRIAL  =       491.6972  VOLUME     =       842.0266
                                                    Density    =         0.0067
 DV/DL  =        24.0168
 ------------------------------------------------------------------------------

      A V E R A G E S   O V E R  500000 S T E P S

 NSTEP =   500000   TIME(PS) =    1200.000  TEMP(K) =   299.96  PRESS =   -10.4
 Etot   =    -30157.5569  EKtot   =      6805.1018  EPtot      =    -36962.6588
 BOND   =         2.9943  ANGLE   =         8.0375  DIHED      =         0.0000
 1-4 NB =         0.0000  1-4 EEL =         0.0000  VDWAALS    =      5469.2439
 EELEC  =    -42442.9344  EHBOND  =         0.0000  RESTRAINT  =         0.0000
 EKCMT  =      3412.5776  VIRIAL  =      3440.0411  VOLUME     =    115591.0951
                                                    Density    =         0.9857
 DV/DL  =      1172.0574
 ------------------------------------------------------------------------------

      R M S  F L U C T U A T I O N S

 NSTEP =   500000   TIME(PS) =    1200.000  TEMP(K) =     2.81  PRESS =   194.9
 Etot   =       122.6422  EKtot   =        63.6488  EPtot      =       105.1110
 BOND   =         1.7082  ANGLE   =         1.1269  DIHED      =         0.0000
 1-4 NB =         0.0000  1-4 EEL =         0.0000  VDWAALS    =        94.3568
 EELEC  =       163.2163  EHBOND  =         0.0000  RESTRAINT  =         0.0000
 EKCMT  =        45.2399  VIRIAL  =       491.6972  VOLUME     =       842.0266
                                                    Density    =         0.0067
 DV/DL  =        24.0168
 ------------------------------------------------------------------------------

      DV/DL, AVERAGES OVER  500000 STEPS

 NSTEP =   500000   TIME(PS) =    1200.000  TEMP(K) =     2.81  PRESS =     0.0
 Etot   =         0.0000  EKtot   =         0.0000  EPtot      =      1172.0574
 BOND   =         0.0000  ANGLE   =         0.0000  DIHED      =         0.0000
 1-4 NB =         0.0000  1-4 EEL =         0.0000  VDWAALS    =         0.0000
 EELEC  =      1172.0574  EHBOND  =         0.0000  RESTRAINT  =         0.0000
 EKCMT  =         0.0000  VIRIAL  =         0.0000  VOLUME     =         0.0000
                                                    Density    =         0.0000
 DV/DL  =      1172.0574
 ------------------------------------------------------------------------------
