-------------------------------------------------------
          Amber 18 PMEMD                              2018
          -------------------------------------------------------

  [-O]verwriting output

File Assignments:

 Here is the input file:

 &cntrl
   nstlim=500000, nscm=1000,
   ntx=5, irest=1, ntpr=1000,
   tempi=300.0, temp0=300.0, ntt=3, gamma_ln=2.0,
   ntp=1, pres0=1.01325, taup=5.0,
   ntb=2, igb=0, cut=10.0,
   dt=0.002, ig=-1,
   ntc=2, ntf=2,
   iwrap=0,
   ntwr=1000, ntwx=50000, ntave=1000,
   ioutfm=1, ntwv=-1,
   ifsc = 0, icfe=1,
   clambda=0.68392,
   timask1=':1',
   timask2=':2', crgmask = ':2',
/

Note: ig = -1. Setting random seed to   290766 based on wallclock time in
      microseconds.

--------------------------------------------------------------------------------
   1.  RESOURCE   USE:
--------------------------------------------------------------------------------

 getting box info from netcdf restart file
 NATOM  =   11419 NTYPES =       4 NBONH =   11409 MBONA  =       8
 NTHETH =       0 MTHETA =      12 NPHIH =       0 MPHIA  =       0
 NHPARM =       0 NPARM  =       0 NNB   =   15234 NRES   =    3805
 NBONA  =       8 NTHETA =      12 NPHIA =       0 NUMBND =       3
 NUMANG =       1 NPTRA  =       0 NATYP =       4 NPHB   =       1
 IFBOX  =       2 NMXRS  =       5 IFCAP =       0 NEXTRA =       0
 NCOPY  =       0

     BOX TYPE: TRUNCATED OCTAHEDRON

--------------------------------------------------------------------------------
   2.  CONTROL  DATA  FOR  THE  RUN
--------------------------------------------------------------------------------

default_name

General flags:
     imin    =       0, nmropt  =       0

Nature and format of input:
     ntx     =       5, irest   =       1, ntrx    =       1

Nature and format of output:
     ntxo    =       2, ntpr    =    1000, ntrx    =       1, ntwr    =    1000
     iwrap   =       0, ntwx    =   50000, ntwv    =      -1, ntwe    =       0
     ioutfm  =       1, ntwprt  =       0, idecomp =       0, rbornstat=      0

Potential function:
     ntf     =       2, ntb     =       2, igb     =       0, nsnb    =      25
     ipol    =       0, gbsa    =       0, iesp    =       0
     dielc   =   1.00000, cut     =  10.00000, intdiel =   1.00000

Frozen or restrained atoms:
     ibelly  =       0, ntr     =       0

Molecular dynamics:
     nstlim  =    500000, nscm    =      1000, nrespa  =         1
     t       =   0.00000, dt      =   0.00200, vlimit  =  -1.00000

Langevin dynamics temperature regulation:
     ig      =  290766
     temp0   = 300.00000, tempi   = 300.00000, gamma_ln=   2.00000

Pressure regulation:
     ntp     =       1
     pres0   =   1.01325, comp    =  44.60000, taup    =   5.00000

SHAKE:
     ntc     =       2, jfastw  =       0
     tol     =   0.00001

Free energy options:
     icfe    =       1, ifsc    =       0, klambda =       1
     clambda =  0.6839, scalpha =  0.5000, scbeta  = 12.0000
     sceeorder =       2
     dynlmb =  0.0000 logdvdl =       0

Ewald parameters:
     verbose =       0, ew_type =       0, nbflag  =       1, use_pme =       1
     vdwmeth =       1, eedmeth =       1, netfrc  =       1
     Box X =   55.004   Box Y =   55.004   Box Z =   55.004
     Alpha =  109.471   Beta  =  109.471   Gamma =  109.471
     NFFT1 =   56       NFFT2 =   56       NFFT3 =   56
     Cutoff=   10.000   Tol   =0.100E-04
     Ewald Coefficient =  0.27511
     Interpolation order =    4
     TI Mask 1 :1; matches      5 atoms
     TI Mask 2 :2; matches      5 atoms
     TI region 1:   11414 atoms
     TI region 2:   11414 atoms
Removing charge of       1.2430 from atom       6
Removing charge of      -1.0605 from atom       7
Removing charge of      -1.0605 from atom       8
Removing charge of      -1.0605 from atom       9
Removing charge of      -1.0605 from atom      10
Total charge of  -2.99900001 removed from       5 atoms
     Checking for mismatched coordinates.

--------------------------------------------------------------------------------
   3.  ATOMIC COORDINATES AND VELOCITIES
--------------------------------------------------------------------------------

default_name
 begin time read from input coords =   200.000 ps

 Number of triangulated 3-point waters found:     3803

     Sum of charges for TI region  1 =  -2.99900001
     Assuming uniform neutralizing plasma

     Sum of charges for TI region  2 =   0.00000000
     Forcing neutrality...

--------------------------------------------------------------------------------
   4.  RESULTS
 NSTEP =     1000   TIME(PS) =     202.000  TEMP(K) =   299.80  PRESS =  -807.0
 Etot   =    -29026.4662  EKtot   =      6801.5415  EPtot      =    -35828.0076
 BOND   =         1.5467  ANGLE   =         9.3515  DIHED      =         0.0000
 1-4 NB =         0.0000  1-4 EEL =         0.0000  VDWAALS    =      5239.4581
 EELEC  =    -41078.3640  EHBOND  =         0.0000  RESTRAINT  =         0.0000
 EKCMT  =      3403.9234  VIRIAL  =      5604.2874  VOLUME     =    126280.5109
                                                    Density    =         0.9022
 DV/DL  =       427.3904
 ------------------------------------------------------------------------------

      A V E R A G E S   O V E R    1000 S T E P S

 NSTEP =     1000   TIME(PS) =     202.000  TEMP(K) =   301.12  PRESS =  -802.9
 Etot   =    -28907.0755  EKtot   =      6831.4034  EPtot      =    -35738.4789
 BOND   =         1.0491  ANGLE   =         7.7533  DIHED      =         0.0000
 1-4 NB =         0.0000  1-4 EEL =         0.0000  VDWAALS    =      5232.8544
 EELEC  =    -40980.1358  EHBOND  =         0.0000  RESTRAINT  =         0.0000
 EKCMT  =      3442.5291  VIRIAL  =      5647.5535  VOLUME     =    127124.9511
                                                    Density    =         0.8962
 DV/DL  =       441.2226
 ------------------------------------------------------------------------------

      R M S  F L U C T U A T I O N S

 NSTEP =     1000   TIME(PS) =     202.000  TEMP(K) =     2.94  PRESS =   159.5
 Etot   =       117.8730  EKtot   =        66.6548  EPtot      =        95.7165
 BOND   =         0.6763  ANGLE   =         0.7605  DIHED      =         0.0000
 1-4 NB =         0.0000  1-4 EEL =         0.0000  VDWAALS    =        84.2322
 EELEC  =       153.3661  EHBOND  =         0.0000  RESTRAINT  =         0.0000
 EKCMT  =        59.4302  VIRIAL  =       425.7800  VOLUME     =       530.8513
                                                    Density    =         0.0037
 DV/DL  =        23.8035
 ------------------------------------------------------------------------------

      A V E R A G E S   O V E R    1000 S T E P S

 NSTEP =     1000   TIME(PS) =     202.000  TEMP(K) =   301.12  PRESS =  -802.9
 Etot   =    -28907.0755  EKtot   =      6831.4034  EPtot      =    -35738.4789
 BOND   =         1.0491  ANGLE   =         7.7533  DIHED      =         0.0000
 1-4 NB =         0.0000  1-4 EEL =         0.0000  VDWAALS    =      5232.8544
 EELEC  =    -40980.1358  EHBOND  =         0.0000  RESTRAINT  =         0.0000
 EKCMT  =      3442.5291  VIRIAL  =      5647.5535  VOLUME     =    127124.9511
                                                    Density    =         0.8962
 DV/DL  =       441.2226
 ------------------------------------------------------------------------------

      R M S  F L U C T U A T I O N S

 NSTEP =     1000   TIME(PS) =     202.000  TEMP(K) =     2.94  PRESS =   159.5
 Etot   =       117.8730  EKtot   =        66.6548  EPtot      =        95.7165
 BOND   =         0.6763  ANGLE   =         0.7605  DIHED      =         0.0000
 1-4 NB =         0.0000  1-4 EEL =         0.0000  VDWAALS    =        84.2322
 EELEC  =       153.3661  EHBOND  =         0.0000  RESTRAINT  =         0.0000
 EKCMT  =        59.4302  VIRIAL  =       425.7800  VOLUME     =       530.8513
                                                    Density    =         0.0037
 DV/DL  =        23.8035
 ------------------------------------------------------------------------------

      DV/DL, AVERAGES OVER    1000 STEPS

 NSTEP =     1000   TIME(PS) =     202.000  TEMP(K) =     2.94  PRESS =     0.0
 Etot   =         0.0000  EKtot   =         0.0000  EPtot      =       441.2226
 BOND   =         0.0000  ANGLE   =         0.0000  DIHED      =         0.0000
 1-4 NB =         0.0000  1-4 EEL =         0.0000  VDWAALS    =         0.0000
 EELEC  =       441.2226  EHBOND  =         0.0000  RESTRAINT  =         0.0000
 EKCMT  =         0.0000  VIRIAL  =         0.0000  VOLUME     =         0.0000
                                                    Density    =         0.0000
 DV/DL  =       441.2226
 ------------------------------------------------------------------------------

      A V E R A G E S   O V E R    1000 S T E P S

 NSTEP =     2000   TIME(PS) =     204.000  TEMP(K) =   299.56  PRESS =  -719.0
 Etot   =    -29073.7607  EKtot   =      6795.9868  EPtot      =    -35869.7475
 BOND   =         1.0583  ANGLE   =         7.8590  DIHED      =         0.0000
 1-4 NB =         0.0000  1-4 EEL =         0.0000  VDWAALS    =      5265.0971
 EELEC  =    -41143.7618  EHBOND  =         0.0000  RESTRAINT  =         0.0000
 EKCMT  =      3407.8854  VIRIAL  =      5355.6244  VOLUME     =    125448.1332
                                                    Density    =         0.9082
 DV/DL  =       435.3186
 ------------------------------------------------------------------------------

      R M S  F L U C T U A T I O N S

 NSTEP =     2000   TIME(PS) =     204.000  TEMP(K) =     2.08  PRESS =   146.4
 Etot   =        46.2780  EKtot   =        47.2605  EPtot      =        52.9075
 BOND   =         0.6227  ANGLE   =         0.8634  DIHED      =         0.0000
 1-4 NB =         0.0000  1-4 EEL =         0.0000  VDWAALS    =        78.3715
 EELEC  =        98.5258  EHBOND  =         0.0000  RESTRAINT  =         0.0000
 EKCMT  =        40.4018  VIRIAL  =       408.1739  VOLUME     =       442.6911
                                                    Density    =         0.0032
 DV/DL  =        25.5792
 ------------------------------------------------------------------------------

      A V E R A G E S   O V E R    1000 S T E P S

 NSTEP =     2000   TIME(PS) =     204.000  TEMP(K) =   299.56  PRESS =  -719.0
 Etot   =    -29073.7607  EKtot   =      6795.9868  EPtot      =    -35869.7475
 BOND   =         1.0583  ANGLE   =         7.8590  DIHED      =         0.0000
 1-4 NB =         0.0000  1-4 EEL =         0.0000  VDWAALS    =      5265.0971
 EELEC  =    -41143.7618  EHBOND  =         0.0000  RESTRAINT  =         0.0000
 EKCMT  =      3407.8854  VIRIAL  =      5355.6244  VOLUME     =    125448.1332
                                                    Density    =         0.9082
 DV/DL  =       435.3186
 ------------------------------------------------------------------------------

      R M S  F L U C T U A T I O N S

 NSTEP =     2000   TIME(PS) =     204.000  TEMP(K) =     2.08  PRESS =   146.4
 Etot   =        46.2780  EKtot   =        47.2605  EPtot      =        52.9075
 BOND   =         0.6227  ANGLE   =         0.8634  DIHED      =         0.0000
 1-4 NB =         0.0000  1-4 EEL =         0.0000  VDWAALS    =        78.3715
 EELEC  =        98.5258  EHBOND  =         0.0000  RESTRAINT  =         0.0000
 EKCMT  =        40.4018  VIRIAL  =       408.1739  VOLUME     =       442.6911
                                                    Density    =         0.0032
 DV/DL  =        25.5792
 ------------------------------------------------------------------------------

      DV/DL, AVERAGES OVER    1000 STEPS

 NSTEP =     2000   TIME(PS) =     204.000  TEMP(K) =     2.08  PRESS =     0.0
 Etot   =         0.0000  EKtot   =         0.0000  EPtot      =       435.3186
 BOND   =         0.0000  ANGLE   =         0.0000  DIHED      =         0.0000
 1-4 NB =         0.0000  1-4 EEL =         0.0000  VDWAALS    =         0.0000
 EELEC  =       435.3186  EHBOND  =         0.0000  RESTRAINT  =         0.0000
 EKCMT  =         0.0000  VIRIAL  =         0.0000  VOLUME     =         0.0000
                                                    Density    =         0.0000
 DV/DL  =       435.3186
 ------------------------------------------------------------------------------

      A V E R A G E S   O V E R    1000 S T E P S

 NSTEP =   500000   TIME(PS) =    1200.000  TEMP(K) =   302.27  PRESS =    99.6
 Etot   =    -29420.3238  EKtot   =      6857.5162  EPtot      =    -36277.8400
 BOND   =         0.9190  ANGLE   =         8.0092  DIHED      =         0.0000
 1-4 NB =         0.0000  1-4 EEL =         0.0000  VDWAALS    =      5458.2793
 EELEC  =    -41745.0475  EHBOND  =         0.0000  RESTRAINT  =         0.0000
 EKCMT  =      3469.8487  VIRIAL  =      3220.6425  VOLUME     =    115882.0913
                                                    Density    =         0.9832
 DV/DL  =       424.2483
 ------------------------------------------------------------------------------

      R M S  F L U C T U A T I O N S

 NSTEP =   500000   TIME(PS) =    1200.000  TEMP(K) =     2.76  PRESS =   177.7
 Etot   =        86.8511  EKtot   =        62.7150  EPtot      =        69.4644
 BOND   =         0.6549  ANGLE   =         0.9910  DIHED      =         0.0000
 1-4 NB =         0.0000  1-4 EEL =         0.0000  VDWAALS    =        92.4446
 EELEC  =       124.6488  EHBOND  =         0.0000  RESTRAINT  =         0.0000
 EKCMT  =        46.3708  VIRIAL  =       454.4315  VOLUME     =        62.9427
                                                    Density    =         0.0005
 DV/DL  =        21.2602
 ------------------------------------------------------------------------------

      A V E R A G E S   O V E R    1000 S T E P S

 NSTEP =   500000   TIME(PS) =    1200.000  TEMP(K) =   302.27  PRESS =    99.6
 Etot   =    -29420.3238  EKtot   =      6857.5162  EPtot      =    -36277.8400
 BOND   =         0.9190  ANGLE   =         8.0092  DIHED      =         0.0000
 1-4 NB =         0.0000  1-4 EEL =         0.0000  VDWAALS    =      5458.2793
 EELEC  =    -41745.0475  EHBOND  =         0.0000  RESTRAINT  =         0.0000
 EKCMT  =      3469.8487  VIRIAL  =      3220.6425  VOLUME     =    115882.0913
                                                    Density    =         0.9832
 DV/DL  =       424.2483
 ------------------------------------------------------------------------------

      R M S  F L U C T U A T I O N S

 NSTEP =   500000   TIME(PS) =    1200.000  TEMP(K) =     2.76  PRESS =   177.7
 Etot   =        86.8511  EKtot   =        62.7150  EPtot      =        69.4644
 BOND   =         0.6549  ANGLE   =         0.9910  DIHED      =         0.0000
 1-4 NB =         0.0000  1-4 EEL =         0.0000  VDWAALS    =        92.4446
 EELEC  =       124.6488  EHBOND  =         0.0000  RESTRAINT  =         0.0000
 EKCMT  =        46.3708  VIRIAL  =       454.4315  VOLUME     =        62.9427
                                                    Density    =         0.0005
 DV/DL  =        21.2602
 ------------------------------------------------------------------------------

      DV/DL, AVERAGES OVER    1000 STEPS

 NSTEP =   500000   TIME(PS) =    1200.000  TEMP(K) =     2.76  PRESS =     0.0
 Etot   =         0.0000  EKtot   =         0.0000  EPtot      =       424.2483
 BOND   =         0.0000  ANGLE   =         0.0000  DIHED      =         0.0000
 1-4 NB =         0.0000  1-4 EEL =         0.0000  VDWAALS    =         0.0000
 EELEC  =       424.2483  EHBOND  =         0.0000  RESTRAINT  =         0.0000
 EKCMT  =         0.0000  VIRIAL  =         0.0000  VOLUME     =         0.0000
                                                    Density    =         0.0000
 DV/DL  =       424.2483
 ------------------------------------------------------------------------------

      A V E R A G E S   O V E R  500000 S T E P S

 NSTEP =   500000   TIME(PS) =    1200.000  TEMP(K) =   300.52  PRESS =   -10.1
 Etot   =    -29525.0560  EKtot   =      6817.7824  EPtot      =    -36342.8384
 BOND   =         1.2111  ANGLE   =         7.7625  DIHED      =         0.0000
 1-4 NB =         0.0000  1-4 EEL =         0.0000  VDWAALS    =      5423.7227
 EELEC  =    -41775.5348  EHBOND  =         0.0000  RESTRAINT  =         0.0000
 EKCMT  =      3422.7796  VIRIAL  =      3449.6361  VOLUME     =    115781.6601
                                                    Density    =         0.9841
 DV/DL  =       435.2471
 ------------------------------------------------------------------------------

      R M S  F L U C T U A T I O N S

 NSTEP =   500000   TIME(PS) =    1200.000  TEMP(K) =     2.83  PRESS =   191.4
 Etot   =       121.4397  EKtot   =        64.2235  EPtot      =       102.2752
 BOND   =         0.8645  ANGLE   =         0.9420  DIHED      =         0.0000
 1-4 NB =         0.0000  1-4 EEL =         0.0000  VDWAALS    =        93.5754
 EELEC  =       158.3973  EHBOND  =         0.0000  RESTRAINT  =         0.0000
 EKCMT  =        45.8879  VIRIAL  =       481.9932  VOLUME     =       931.9174
                                                    Density    =         0.0074
 DV/DL  =        26.8859
 ------------------------------------------------------------------------------

      A V E R A G E S   O V E R  500000 S T E P S

 NSTEP =   500000   TIME(PS) =    1200.000  TEMP(K) =   300.52  PRESS =   -10.1
 Etot   =    -29525.0560  EKtot   =      6817.7824  EPtot      =    -36342.8384
 BOND   =         1.2111  ANGLE   =         7.7625  DIHED      =         0.0000
 1-4 NB =         0.0000  1-4 EEL =         0.0000  VDWAALS    =      5423.7227
 EELEC  =    -41775.5348  EHBOND  =         0.0000  RESTRAINT  =         0.0000
 EKCMT  =      3422.7796  VIRIAL  =      3449.6361  VOLUME     =    115781.6601
                                                    Density    =         0.9841
 DV/DL  =       435.2471
 ------------------------------------------------------------------------------

      R M S  F L U C T U A T I O N S

 NSTEP =   500000   TIME(PS) =    1200.000  TEMP(K) =     2.83  PRESS =   191.4
 Etot   =       121.4397  EKtot   =        64.2235  EPtot      =       102.2752
 BOND   =         0.8645  ANGLE   =         0.9420  DIHED      =         0.0000
 1-4 NB =         0.0000  1-4 EEL =         0.0000  VDWAALS    =        93.5754
 EELEC  =       158.3973  EHBOND  =         0.0000  RESTRAINT  =         0.0000
 EKCMT  =        45.8879  VIRIAL  =       481.9932  VOLUME     =       931.9174
                                                    Density    =         0.0074
 DV/DL  =        26.8859
 ------------------------------------------------------------------------------

      DV/DL, AVERAGES OVER  500000 STEPS

 NSTEP =   500000   TIME(PS) =    1200.000  TEMP(K) =     2.83  PRESS =     0.0
 Etot   =         0.0000  EKtot   =         0.0000  EPtot      =       435.2471
 BOND   =         0.0000  ANGLE   =         0.0000  DIHED      =         0.0000
 1-4 NB =         0.0000  1-4 EEL =         0.0000  VDWAALS    =         0.0000
 EELEC  =       435.2471  EHBOND  =         0.0000  RESTRAINT  =         0.0000
 EKCMT  =         0.0000  VIRIAL  =         0.0000  VOLUME     =         0.0000
                                                    Density    =         0.0000
 DV/DL  =       435.2471
 ------------------------------------------------------------------------------
