-------------------------------------------------------
          Amber 18 PMEMD                              2018
          -------------------------------------------------------

  [-O]verwriting output

File Assignments:

 Here is the input file:

 &cntrl
   nstlim=500000, nscm=1000,
   ntx=5, irest=1, ntpr=1000,
   tempi=300.0, temp0=300.0, ntt=3, gamma_ln=2.0,
   ntp=1, pres0=1.01325, taup=5.0,
   ntb=2, igb=0, cut=10.0,
   dt=0.002, ig=-1,
   ntc=2, ntf=2,
   iwrap=0,
   ntwr=1000, ntwx=50000, ntave=1000,
   ioutfm=1, ntwv=-1,
   ifsc = 0, icfe=1,
   clambda=0.20634,
   timask1=':1',
   timask2=':2', crgmask = ':2',
/

Note: ig = -1. Setting random seed to   468230 based on wallclock time in
      microseconds.

--------------------------------------------------------------------------------
   1.  RESOURCE   USE:
--------------------------------------------------------------------------------

 getting box info from netcdf restart file
 NATOM  =   11419 NTYPES =       4 NBONH =   11409 MBONA  =       8
 NTHETH =       0 MTHETA =      12 NPHIH =       0 MPHIA  =       0
 NHPARM =       0 NPARM  =       0 NNB   =   15234 NRES   =    3805
 NBONA  =       8 NTHETA =      12 NPHIA =       0 NUMBND =       3
 NUMANG =       1 NPTRA  =       0 NATYP =       4 NPHB   =       1
 IFBOX  =       2 NMXRS  =       5 IFCAP =       0 NEXTRA =       0
 NCOPY  =       0

     BOX TYPE: TRUNCATED OCTAHEDRON

--------------------------------------------------------------------------------
   2.  CONTROL  DATA  FOR  THE  RUN
--------------------------------------------------------------------------------

default_name

General flags:
     imin    =       0, nmropt  =       0

Nature and format of input:
     ntx     =       5, irest   =       1, ntrx    =       1

Nature and format of output:
     ntxo    =       2, ntpr    =    1000, ntrx    =       1, ntwr    =    1000
     iwrap   =       0, ntwx    =   50000, ntwv    =      -1, ntwe    =       0
     ioutfm  =       1, ntwprt  =       0, idecomp =       0, rbornstat=      0

Potential function:
     ntf     =       2, ntb     =       2, igb     =       0, nsnb    =      25
     ipol    =       0, gbsa    =       0, iesp    =       0
     dielc   =   1.00000, cut     =  10.00000, intdiel =   1.00000

Frozen or restrained atoms:
     ibelly  =       0, ntr     =       0

Molecular dynamics:
     nstlim  =    500000, nscm    =      1000, nrespa  =         1
     t       =   0.00000, dt      =   0.00200, vlimit  =  -1.00000

Langevin dynamics temperature regulation:
     ig      =  468230
     temp0   = 300.00000, tempi   = 300.00000, gamma_ln=   2.00000

Pressure regulation:
     ntp     =       1
     pres0   =   1.01325, comp    =  44.60000, taup    =   5.00000

SHAKE:
     ntc     =       2, jfastw  =       0
     tol     =   0.00001

Free energy options:
     icfe    =       1, ifsc    =       0, klambda =       1
     clambda =  0.2063, scalpha =  0.5000, scbeta  = 12.0000
     sceeorder =       2
     dynlmb =  0.0000 logdvdl =       0

Ewald parameters:
     verbose =       0, ew_type =       0, nbflag  =       1, use_pme =       1
     vdwmeth =       1, eedmeth =       1, netfrc  =       1
     Box X =   55.004   Box Y =   55.004   Box Z =   55.004
     Alpha =  109.471   Beta  =  109.471   Gamma =  109.471
     NFFT1 =   56       NFFT2 =   56       NFFT3 =   56
     Cutoff=   10.000   Tol   =0.100E-04
     Ewald Coefficient =  0.27511
     Interpolation order =    4
     TI Mask 1 :1; matches      5 atoms
     TI Mask 2 :2; matches      5 atoms
     TI region 1:   11414 atoms
     TI region 2:   11414 atoms
Removing charge of       1.2430 from atom       6
Removing charge of      -1.0605 from atom       7
Removing charge of      -1.0605 from atom       8
Removing charge of      -1.0605 from atom       9
Removing charge of      -1.0605 from atom      10
Total charge of  -2.99900001 removed from       5 atoms
     Checking for mismatched coordinates.

--------------------------------------------------------------------------------
   3.  ATOMIC COORDINATES AND VELOCITIES
--------------------------------------------------------------------------------

default_name
 begin time read from input coords =   200.000 ps

 Number of triangulated 3-point waters found:     3803

     Sum of charges for TI region  1 =  -2.99900001
     Assuming uniform neutralizing plasma

     Sum of charges for TI region  2 =   0.00000000
     Forcing neutrality...

--------------------------------------------------------------------------------
   4.  RESULTS
 NSTEP =     1000   TIME(PS) =     202.000  TEMP(K) =   300.44  PRESS =  -706.5
 Etot   =    -29269.1029  EKtot   =      6815.9066  EPtot      =    -36085.0095
 BOND   =         1.5008  ANGLE   =         7.7660  DIHED      =         0.0000
 1-4 NB =         0.0000  1-4 EEL =         0.0000  VDWAALS    =      5291.3756
 EELEC  =    -41385.6519  EHBOND  =         0.0000  RESTRAINT  =         0.0000
 EKCMT  =      3399.3534  VIRIAL  =      5326.2390  VOLUME     =    126317.7188
                                                    Density    =         0.9019
 DV/DL  =       978.0118
 ------------------------------------------------------------------------------

      A V E R A G E S   O V E R    1000 S T E P S

 NSTEP =     1000   TIME(PS) =     202.000  TEMP(K) =   299.96  PRESS =  -786.3
 Etot   =    -29263.1853  EKtot   =      6805.2257  EPtot      =    -36068.4110
 BOND   =         1.5519  ANGLE   =         8.0178  DIHED      =         0.0000
 1-4 NB =         0.0000  1-4 EEL =         0.0000  VDWAALS    =      5281.6005
 EELEC  =    -41359.5812  EHBOND  =         0.0000  RESTRAINT  =         0.0000
 EKCMT  =      3403.2047  VIRIAL  =      5562.9233  VOLUME     =    127155.7992
                                                    Density    =         0.8960
 DV/DL  =       963.4256
 ------------------------------------------------------------------------------

      R M S  F L U C T U A T I O N S

 NSTEP =     1000   TIME(PS) =     202.000  TEMP(K) =     2.49  PRESS =   151.9
 Etot   =       102.0710  EKtot   =        56.3948  EPtot      =        80.6268
 BOND   =         0.9842  ANGLE   =         1.1155  DIHED      =         0.0000
 1-4 NB =         0.0000  1-4 EEL =         0.0000  VDWAALS    =        86.0337
 EELEC  =       143.1705  EHBOND  =         0.0000  RESTRAINT  =         0.0000
 EKCMT  =        36.3289  VIRIAL  =       439.0468  VOLUME     =       499.4564
                                                    Density    =         0.0035
 DV/DL  =        20.6451
 ------------------------------------------------------------------------------

      A V E R A G E S   O V E R    1000 S T E P S

 NSTEP =     1000   TIME(PS) =     202.000  TEMP(K) =   299.96  PRESS =  -786.3
 Etot   =    -29263.1853  EKtot   =      6805.2257  EPtot      =    -36068.4110
 BOND   =         1.5519  ANGLE   =         8.0178  DIHED      =         0.0000
 1-4 NB =         0.0000  1-4 EEL =         0.0000  VDWAALS    =      5281.6005
 EELEC  =    -41359.5812  EHBOND  =         0.0000  RESTRAINT  =         0.0000
 EKCMT  =      3403.2047  VIRIAL  =      5562.9233  VOLUME     =    127155.7992
                                                    Density    =         0.8960
 DV/DL  =       963.4256
 ------------------------------------------------------------------------------

      R M S  F L U C T U A T I O N S

 NSTEP =     1000   TIME(PS) =     202.000  TEMP(K) =     2.49  PRESS =   151.9
 Etot   =       102.0710  EKtot   =        56.3948  EPtot      =        80.6268
 BOND   =         0.9842  ANGLE   =         1.1155  DIHED      =         0.0000
 1-4 NB =         0.0000  1-4 EEL =         0.0000  VDWAALS    =        86.0337
 EELEC  =       143.1705  EHBOND  =         0.0000  RESTRAINT  =         0.0000
 EKCMT  =        36.3289  VIRIAL  =       439.0468  VOLUME     =       499.4564
                                                    Density    =         0.0035
 DV/DL  =        20.6451
 ------------------------------------------------------------------------------

      DV/DL, AVERAGES OVER    1000 STEPS

 NSTEP =     1000   TIME(PS) =     202.000  TEMP(K) =     2.49  PRESS =     0.0
 Etot   =         0.0000  EKtot   =         0.0000  EPtot      =       963.4256
 BOND   =         0.0000  ANGLE   =         0.0000  DIHED      =         0.0000
 1-4 NB =         0.0000  1-4 EEL =         0.0000  VDWAALS    =         0.0000
 EELEC  =       963.4256  EHBOND  =         0.0000  RESTRAINT  =         0.0000
 EKCMT  =         0.0000  VIRIAL  =         0.0000  VOLUME     =         0.0000
                                                    Density    =         0.0000
 DV/DL  =       963.4256
 ------------------------------------------------------------------------------

      A V E R A G E S   O V E R    1000 S T E P S

 NSTEP =     2000   TIME(PS) =     204.000  TEMP(K) =   298.47  PRESS =  -798.0
 Etot   =    -29436.0003  EKtot   =      6771.3963  EPtot      =    -36207.3967
 BOND   =         1.6027  ANGLE   =         7.8075  DIHED      =         0.0000
 1-4 NB =         0.0000  1-4 EEL =         0.0000  VDWAALS    =      5275.0368
 EELEC  =    -41491.8437  EHBOND  =         0.0000  RESTRAINT  =         0.0000
 EKCMT  =      3397.4293  VIRIAL  =      5558.4323  VOLUME     =    125394.7260
                                                    Density    =         0.9086
 DV/DL  =       959.8219
 ------------------------------------------------------------------------------

      R M S  F L U C T U A T I O N S

 NSTEP =     2000   TIME(PS) =     204.000  TEMP(K) =     2.72  PRESS =   141.1
 Etot   =        91.4366  EKtot   =        61.8179  EPtot      =        68.5708
 BOND   =         1.1304  ANGLE   =         0.9392  DIHED      =         0.0000
 1-4 NB =         0.0000  1-4 EEL =         0.0000  VDWAALS    =        81.6322
 EELEC  =       119.3169  EHBOND  =         0.0000  RESTRAINT  =         0.0000
 EKCMT  =        47.3543  VIRIAL  =       396.7857  VOLUME     =       515.8134
                                                    Density    =         0.0037
 DV/DL  =        21.4122
 ------------------------------------------------------------------------------

      A V E R A G E S   O V E R    1000 S T E P S

 NSTEP =     2000   TIME(PS) =     204.000  TEMP(K) =   298.47  PRESS =  -798.0
 Etot   =    -29436.0003  EKtot   =      6771.3963  EPtot      =    -36207.3967
 BOND   =         1.6027  ANGLE   =         7.8075  DIHED      =         0.0000
 1-4 NB =         0.0000  1-4 EEL =         0.0000  VDWAALS    =      5275.0368
 EELEC  =    -41491.8437  EHBOND  =         0.0000  RESTRAINT  =         0.0000
 EKCMT  =      3397.4293  VIRIAL  =      5558.4323  VOLUME     =    125394.7260
                                                    Density    =         0.9086
 DV/DL  =       959.8219
 ------------------------------------------------------------------------------

      R M S  F L U C T U A T I O N S

 NSTEP =     2000   TIME(PS) =     204.000  TEMP(K) =     2.72  PRESS =   141.1
 Etot   =        91.4366  EKtot   =        61.8179  EPtot      =        68.5708
 BOND   =         1.1304  ANGLE   =         0.9392  DIHED      =         0.0000
 1-4 NB =         0.0000  1-4 EEL =         0.0000  VDWAALS    =        81.6322
 EELEC  =       119.3169  EHBOND  =         0.0000  RESTRAINT  =         0.0000
 EKCMT  =        47.3543  VIRIAL  =       396.7857  VOLUME     =       515.8134
                                                    Density    =         0.0037
 DV/DL  =        21.4122
 ------------------------------------------------------------------------------

      DV/DL, AVERAGES OVER    1000 STEPS

 NSTEP =     2000   TIME(PS) =     204.000  TEMP(K) =     2.72  PRESS =     0.0
 Etot   =         0.0000  EKtot   =         0.0000  EPtot      =       959.8219
 BOND   =         0.0000  ANGLE   =         0.0000  DIHED      =         0.0000
 1-4 NB =         0.0000  1-4 EEL =         0.0000  VDWAALS    =         0.0000
 EELEC  =       959.8219  EHBOND  =         0.0000  RESTRAINT  =         0.0000
 EKCMT  =         0.0000  VIRIAL  =         0.0000  VOLUME     =         0.0000
                                                    Density    =         0.0000
 DV/DL  =       959.8219
 ------------------------------------------------------------------------------

      A V E R A G E S   O V E R    1000 S T E P S

 NSTEP =   500000   TIME(PS) =    1200.000  TEMP(K) =   299.03  PRESS =   -32.8
 Etot   =    -29951.9839  EKtot   =      6784.0314  EPtot      =    -36736.0153
 BOND   =         1.8854  ANGLE   =         7.5719  DIHED      =         0.0000
 1-4 NB =         0.0000  1-4 EEL =         0.0000  VDWAALS    =      5445.4681
 EELEC  =    -42190.9407  EHBOND  =         0.0000  RESTRAINT  =         0.0000
 EKCMT  =      3385.3374  VIRIAL  =      3467.2518  VOLUME     =    115574.9441
                                                    Density    =         0.9858
 DV/DL  =       960.6882
 ------------------------------------------------------------------------------

      R M S  F L U C T U A T I O N S

 NSTEP =   500000   TIME(PS) =    1200.000  TEMP(K) =     2.41  PRESS =   164.1
 Etot   =        91.0575  EKtot   =        54.7660  EPtot      =        76.4865
 BOND   =         1.3675  ANGLE   =         0.7946  DIHED      =         0.0000
 1-4 NB =         0.0000  1-4 EEL =         0.0000  VDWAALS    =        83.6313
 EELEC  =       114.7279  EHBOND  =         0.0000  RESTRAINT  =         0.0000
 EKCMT  =        42.8363  VIRIAL  =       410.7223  VOLUME     =        43.8989
                                                    Density    =         0.0004
 DV/DL  =        22.4165
 ------------------------------------------------------------------------------

      A V E R A G E S   O V E R    1000 S T E P S

 NSTEP =   500000   TIME(PS) =    1200.000  TEMP(K) =   299.03  PRESS =   -32.8
 Etot   =    -29951.9839  EKtot   =      6784.0314  EPtot      =    -36736.0153
 BOND   =         1.8854  ANGLE   =         7.5719  DIHED      =         0.0000
 1-4 NB =         0.0000  1-4 EEL =         0.0000  VDWAALS    =      5445.4681
 EELEC  =    -42190.9407  EHBOND  =         0.0000  RESTRAINT  =         0.0000
 EKCMT  =      3385.3374  VIRIAL  =      3467.2518  VOLUME     =    115574.9441
                                                    Density    =         0.9858
 DV/DL  =       960.6882
 ------------------------------------------------------------------------------

      R M S  F L U C T U A T I O N S

 NSTEP =   500000   TIME(PS) =    1200.000  TEMP(K) =     2.41  PRESS =   164.1
 Etot   =        91.0575  EKtot   =        54.7660  EPtot      =        76.4865
 BOND   =         1.3675  ANGLE   =         0.7946  DIHED      =         0.0000
 1-4 NB =         0.0000  1-4 EEL =         0.0000  VDWAALS    =        83.6313
 EELEC  =       114.7279  EHBOND  =         0.0000  RESTRAINT  =         0.0000
 EKCMT  =        42.8363  VIRIAL  =       410.7223  VOLUME     =        43.8989
                                                    Density    =         0.0004
 DV/DL  =        22.4165
 ------------------------------------------------------------------------------

      DV/DL, AVERAGES OVER    1000 STEPS

 NSTEP =   500000   TIME(PS) =    1200.000  TEMP(K) =     2.41  PRESS =     0.0
 Etot   =         0.0000  EKtot   =         0.0000  EPtot      =       960.6882
 BOND   =         0.0000  ANGLE   =         0.0000  DIHED      =         0.0000
 1-4 NB =         0.0000  1-4 EEL =         0.0000  VDWAALS    =         0.0000
 EELEC  =       960.6882  EHBOND  =         0.0000  RESTRAINT  =         0.0000
 EKCMT  =         0.0000  VIRIAL  =         0.0000  VOLUME     =         0.0000
                                                    Density    =         0.0000
 DV/DL  =       960.6882
 ------------------------------------------------------------------------------

      A V E R A G E S   O V E R  500000 S T E P S

 NSTEP =   500000   TIME(PS) =    1200.000  TEMP(K) =   299.99  PRESS =   -10.6
 Etot   =    -29926.7574  EKtot   =      6805.7579  EPtot      =    -36732.5153
 BOND   =         1.7512  ANGLE   =         7.7940  DIHED      =         0.0000
 1-4 NB =         0.0000  1-4 EEL =         0.0000  VDWAALS    =      5453.3005
 EELEC  =    -42195.3610  EHBOND  =         0.0000  RESTRAINT  =         0.0000
 EKCMT  =      3413.7587  VIRIAL  =      3441.7209  VOLUME     =    115676.9236
                                                    Density    =         0.9850
 DV/DL  =       968.0613
 ------------------------------------------------------------------------------

      R M S  F L U C T U A T I O N S

 NSTEP =   500000   TIME(PS) =    1200.000  TEMP(K) =     2.82  PRESS =   192.7
 Etot   =       122.4512  EKtot   =        63.9787  EPtot      =       103.7736
 BOND   =         1.1835  ANGLE   =         0.9725  DIHED      =         0.0000
 1-4 NB =         0.0000  1-4 EEL =         0.0000  VDWAALS    =        94.5082
 EELEC  =       161.5355  EHBOND  =         0.0000  RESTRAINT  =         0.0000
 EKCMT  =        45.2836  VIRIAL  =       485.4614  VOLUME     =       933.1100
                                                    Density    =         0.0074
 DV/DL  =        25.3327
 ------------------------------------------------------------------------------

      A V E R A G E S   O V E R  500000 S T E P S

 NSTEP =   500000   TIME(PS) =    1200.000  TEMP(K) =   299.99  PRESS =   -10.6
 Etot   =    -29926.7574  EKtot   =      6805.7579  EPtot      =    -36732.5153
 BOND   =         1.7512  ANGLE   =         7.7940  DIHED      =         0.0000
 1-4 NB =         0.0000  1-4 EEL =         0.0000  VDWAALS    =      5453.3005
 EELEC  =    -42195.3610  EHBOND  =         0.0000  RESTRAINT  =         0.0000
 EKCMT  =      3413.7587  VIRIAL  =      3441.7209  VOLUME     =    115676.9236
                                                    Density    =         0.9850
 DV/DL  =       968.0613
 ------------------------------------------------------------------------------

      R M S  F L U C T U A T I O N S

 NSTEP =   500000   TIME(PS) =    1200.000  TEMP(K) =     2.82  PRESS =   192.7
 Etot   =       122.4512  EKtot   =        63.9787  EPtot      =       103.7736
 BOND   =         1.1835  ANGLE   =         0.9725  DIHED      =         0.0000
 1-4 NB =         0.0000  1-4 EEL =         0.0000  VDWAALS    =        94.5082
 EELEC  =       161.5355  EHBOND  =         0.0000  RESTRAINT  =         0.0000
 EKCMT  =        45.2836  VIRIAL  =       485.4614  VOLUME     =       933.1100
                                                    Density    =         0.0074
 DV/DL  =        25.3327
 ------------------------------------------------------------------------------

      DV/DL, AVERAGES OVER  500000 STEPS

 NSTEP =   500000   TIME(PS) =    1200.000  TEMP(K) =     2.82  PRESS =     0.0
 Etot   =         0.0000  EKtot   =         0.0000  EPtot      =       968.0613
 BOND   =         0.0000  ANGLE   =         0.0000  DIHED      =         0.0000
 1-4 NB =         0.0000  1-4 EEL =         0.0000  VDWAALS    =         0.0000
 EELEC  =       968.0613  EHBOND  =         0.0000  RESTRAINT  =         0.0000
 EKCMT  =         0.0000  VIRIAL  =         0.0000  VOLUME     =         0.0000
                                                    Density    =         0.0000
 DV/DL  =       968.0613
 ------------------------------------------------------------------------------
