-------------------------------------------------------
          Amber 18 PMEMD                              2018
          -------------------------------------------------------

  [-O]verwriting output

File Assignments:

 Here is the input file:

 &cntrl
   nstlim=500000, nscm=1000,
   ntx=5, irest=1, ntpr=1000,
   tempi=300.0, temp0=300.0, ntt=3, gamma_ln=2.0,
   ntp=1, pres0=1.01325, taup=5.0,
   ntb=2, igb=0, cut=10.0,
   dt=0.002, ig=-1,
   ntc=2, ntf=2,
   iwrap=0,
   ntwr=1000, ntwx=50000, ntave=1000,
   ioutfm=1, ntwv=-1,
   ifsc = 0, icfe=1,
   clambda=0.88495,
   timask1=':1',
   timask2=':2', crgmask = ':2',
/

Note: ig = -1. Setting random seed to    93515 based on wallclock time in
      microseconds.

--------------------------------------------------------------------------------
   1.  RESOURCE   USE:
--------------------------------------------------------------------------------

 getting box info from netcdf restart file
 NATOM  =   11419 NTYPES =       4 NBONH =   11409 MBONA  =       8
 NTHETH =       0 MTHETA =      12 NPHIH =       0 MPHIA  =       0
 NHPARM =       0 NPARM  =       0 NNB   =   15234 NRES   =    3805
 NBONA  =       8 NTHETA =      12 NPHIA =       0 NUMBND =       3
 NUMANG =       1 NPTRA  =       0 NATYP =       4 NPHB   =       1
 IFBOX  =       2 NMXRS  =       5 IFCAP =       0 NEXTRA =       0
 NCOPY  =       0

     BOX TYPE: TRUNCATED OCTAHEDRON

--------------------------------------------------------------------------------
   2.  CONTROL  DATA  FOR  THE  RUN
--------------------------------------------------------------------------------

default_name

General flags:
     imin    =       0, nmropt  =       0

Nature and format of input:
     ntx     =       5, irest   =       1, ntrx    =       1

Nature and format of output:
     ntxo    =       2, ntpr    =    1000, ntrx    =       1, ntwr    =    1000
     iwrap   =       0, ntwx    =   50000, ntwv    =      -1, ntwe    =       0
     ioutfm  =       1, ntwprt  =       0, idecomp =       0, rbornstat=      0

Potential function:
     ntf     =       2, ntb     =       2, igb     =       0, nsnb    =      25
     ipol    =       0, gbsa    =       0, iesp    =       0
     dielc   =   1.00000, cut     =  10.00000, intdiel =   1.00000

Frozen or restrained atoms:
     ibelly  =       0, ntr     =       0

Molecular dynamics:
     nstlim  =    500000, nscm    =      1000, nrespa  =         1
     t       =   0.00000, dt      =   0.00200, vlimit  =  -1.00000

Langevin dynamics temperature regulation:
     ig      =   93515
     temp0   = 300.00000, tempi   = 300.00000, gamma_ln=   2.00000

Pressure regulation:
     ntp     =       1
     pres0   =   1.01325, comp    =  44.60000, taup    =   5.00000

SHAKE:
     ntc     =       2, jfastw  =       0
     tol     =   0.00001

Free energy options:
     icfe    =       1, ifsc    =       0, klambda =       1
     clambda =  0.8850, scalpha =  0.5000, scbeta  = 12.0000
     sceeorder =       2
     dynlmb =  0.0000 logdvdl =       0

Ewald parameters:
     verbose =       0, ew_type =       0, nbflag  =       1, use_pme =       1
     vdwmeth =       1, eedmeth =       1, netfrc  =       1
     Box X =   55.004   Box Y =   55.004   Box Z =   55.004
     Alpha =  109.471   Beta  =  109.471   Gamma =  109.471
     NFFT1 =   56       NFFT2 =   56       NFFT3 =   56
     Cutoff=   10.000   Tol   =0.100E-04
     Ewald Coefficient =  0.27511
     Interpolation order =    4
     TI Mask 1 :1; matches      5 atoms
     TI Mask 2 :2; matches      5 atoms
     TI region 1:   11414 atoms
     TI region 2:   11414 atoms
Removing charge of       1.2430 from atom       6
Removing charge of      -1.0605 from atom       7
Removing charge of      -1.0605 from atom       8
Removing charge of      -1.0605 from atom       9
Removing charge of      -1.0605 from atom      10
Total charge of  -2.99900001 removed from       5 atoms
     Checking for mismatched coordinates.

--------------------------------------------------------------------------------
   3.  ATOMIC COORDINATES AND VELOCITIES
--------------------------------------------------------------------------------

default_name
 begin time read from input coords =   200.000 ps

 Number of triangulated 3-point waters found:     3803

     Sum of charges for TI region  1 =  -2.99900001
     Assuming uniform neutralizing plasma

     Sum of charges for TI region  2 =   0.00000000
     Forcing neutrality...

--------------------------------------------------------------------------------
   4.  RESULTS
 NSTEP =     1000   TIME(PS) =     202.000  TEMP(K) =   302.04  PRESS =  -688.8
 Etot   =    -28800.1447  EKtot   =      6852.3633  EPtot      =    -35652.5080
 BOND   =         0.3163  ANGLE   =         8.2616  DIHED      =         0.0000
 1-4 NB =         0.0000  1-4 EEL =         0.0000  VDWAALS    =      5359.1507
 EELEC  =    -41020.2366  EHBOND  =         0.0000  RESTRAINT  =         0.0000
 EKCMT  =      3449.9258  VIRIAL  =      5317.7841  VOLUME     =    125591.0056
                                                    Density    =         0.9072
 DV/DL  =       201.4626
 ------------------------------------------------------------------------------

      A V E R A G E S   O V E R    1000 S T E P S

 NSTEP =     1000   TIME(PS) =     202.000  TEMP(K) =   300.80  PRESS = -1109.7
 Etot   =    -28702.4922  EKtot   =      6824.0860  EPtot      =    -35526.5782
 BOND   =         1.2646  ANGLE   =         7.8774  DIHED      =         0.0000
 1-4 NB =         0.0000  1-4 EEL =         0.0000  VDWAALS    =      5141.0945
 EELEC  =    -40676.8148  EHBOND  =         0.0000  RESTRAINT  =         0.0000
 EKCMT  =      3430.7022  VIRIAL  =      6469.8902  VOLUME     =    126801.4052
                                                    Density    =         0.8985
 DV/DL  =       225.4596
 ------------------------------------------------------------------------------

      R M S  F L U C T U A T I O N S

 NSTEP =     1000   TIME(PS) =     202.000  TEMP(K) =     2.69  PRESS =   143.3
 Etot   =        99.5166  EKtot   =        60.9276  EPtot      =        88.6882
 BOND   =         0.7157  ANGLE   =         0.9813  DIHED      =         0.0000
 1-4 NB =         0.0000  1-4 EEL =         0.0000  VDWAALS    =        77.3682
 EELEC  =       139.0646  EHBOND  =         0.0000  RESTRAINT  =         0.0000
 EKCMT  =        43.1069  VIRIAL  =       406.1454  VOLUME     =       734.6241
                                                    Density    =         0.0052
 DV/DL  =        24.1440
 ------------------------------------------------------------------------------

      A V E R A G E S   O V E R    1000 S T E P S

 NSTEP =     1000   TIME(PS) =     202.000  TEMP(K) =   300.80  PRESS = -1109.7
 Etot   =    -28702.4922  EKtot   =      6824.0860  EPtot      =    -35526.5782
 BOND   =         1.2646  ANGLE   =         7.8774  DIHED      =         0.0000
 1-4 NB =         0.0000  1-4 EEL =         0.0000  VDWAALS    =      5141.0945
 EELEC  =    -40676.8148  EHBOND  =         0.0000  RESTRAINT  =         0.0000
 EKCMT  =      3430.7022  VIRIAL  =      6469.8902  VOLUME     =    126801.4052
                                                    Density    =         0.8985
 DV/DL  =       225.4596
 ------------------------------------------------------------------------------

      R M S  F L U C T U A T I O N S

 NSTEP =     1000   TIME(PS) =     202.000  TEMP(K) =     2.69  PRESS =   143.3
 Etot   =        99.5166  EKtot   =        60.9276  EPtot      =        88.6882
 BOND   =         0.7157  ANGLE   =         0.9813  DIHED      =         0.0000
 1-4 NB =         0.0000  1-4 EEL =         0.0000  VDWAALS    =        77.3682
 EELEC  =       139.0646  EHBOND  =         0.0000  RESTRAINT  =         0.0000
 EKCMT  =        43.1069  VIRIAL  =       406.1454  VOLUME     =       734.6241
                                                    Density    =         0.0052
 DV/DL  =        24.1440
 ------------------------------------------------------------------------------

      DV/DL, AVERAGES OVER    1000 STEPS

 NSTEP =     1000   TIME(PS) =     202.000  TEMP(K) =     2.69  PRESS =     0.0
 Etot   =         0.0000  EKtot   =         0.0000  EPtot      =       225.4596
 BOND   =         0.0000  ANGLE   =         0.0000  DIHED      =         0.0000
 1-4 NB =         0.0000  1-4 EEL =         0.0000  VDWAALS    =         0.0000
 EELEC  =       225.4596  EHBOND  =         0.0000  RESTRAINT  =         0.0000
 EKCMT  =         0.0000  VIRIAL  =         0.0000  VOLUME     =         0.0000
                                                    Density    =         0.0000
 DV/DL  =       225.4596
 ------------------------------------------------------------------------------

      A V E R A G E S   O V E R    1000 S T E P S

 NSTEP =     2000   TIME(PS) =     204.000  TEMP(K) =   301.41  PRESS =  -939.4
 Etot   =    -28841.2597  EKtot   =      6838.0562  EPtot      =    -35679.3159
 BOND   =         1.3537  ANGLE   =         7.3492  DIHED      =         0.0000
 1-4 NB =         0.0000  1-4 EEL =         0.0000  VDWAALS    =      5187.8773
 EELEC  =    -40875.8961  EHBOND  =         0.0000  RESTRAINT  =         0.0000
 EKCMT  =      3436.8976  VIRIAL  =      5962.9393  VOLUME     =    124546.9908
                                                    Density    =         0.9148
 DV/DL  =       221.2252
 ------------------------------------------------------------------------------

      R M S  F L U C T U A T I O N S

 NSTEP =     2000   TIME(PS) =     204.000  TEMP(K) =     2.84  PRESS =   154.9
 Etot   =        68.9765  EKtot   =        64.5399  EPtot      =        54.7123
 BOND   =         0.6908  ANGLE   =         0.6063  DIHED      =         0.0000
 1-4 NB =         0.0000  1-4 EEL =         0.0000  VDWAALS    =        85.3633
 EELEC  =        97.3563  EHBOND  =         0.0000  RESTRAINT  =         0.0000
 EKCMT  =        53.5281  VIRIAL  =       408.8298  VOLUME     =       586.9840
                                                    Density    =         0.0043
 DV/DL  =        23.2816
 ------------------------------------------------------------------------------

      A V E R A G E S   O V E R    1000 S T E P S

 NSTEP =     2000   TIME(PS) =     204.000  TEMP(K) =   301.41  PRESS =  -939.4
 Etot   =    -28841.2597  EKtot   =      6838.0562  EPtot      =    -35679.3159
 BOND   =         1.3537  ANGLE   =         7.3492  DIHED      =         0.0000
 1-4 NB =         0.0000  1-4 EEL =         0.0000  VDWAALS    =      5187.8773
 EELEC  =    -40875.8961  EHBOND  =         0.0000  RESTRAINT  =         0.0000
 EKCMT  =      3436.8976  VIRIAL  =      5962.9393  VOLUME     =    124546.9908
                                                    Density    =         0.9148
 DV/DL  =       221.2252
 ------------------------------------------------------------------------------

      R M S  F L U C T U A T I O N S

 NSTEP =     2000   TIME(PS) =     204.000  TEMP(K) =     2.84  PRESS =   154.9
 Etot   =        68.9765  EKtot   =        64.5399  EPtot      =        54.7123
 BOND   =         0.6908  ANGLE   =         0.6063  DIHED      =         0.0000
 1-4 NB =         0.0000  1-4 EEL =         0.0000  VDWAALS    =        85.3633
 EELEC  =        97.3563  EHBOND  =         0.0000  RESTRAINT  =         0.0000
 EKCMT  =        53.5281  VIRIAL  =       408.8298  VOLUME     =       586.9840
                                                    Density    =         0.0043
 DV/DL  =        23.2816
 ------------------------------------------------------------------------------

      DV/DL, AVERAGES OVER    1000 STEPS

 NSTEP =     2000   TIME(PS) =     204.000  TEMP(K) =     2.84  PRESS =     0.0
 Etot   =         0.0000  EKtot   =         0.0000  EPtot      =       221.2252
 BOND   =         0.0000  ANGLE   =         0.0000  DIHED      =         0.0000
 1-4 NB =         0.0000  1-4 EEL =         0.0000  VDWAALS    =         0.0000
 EELEC  =       221.2252  EHBOND  =         0.0000  RESTRAINT  =         0.0000
 EKCMT  =         0.0000  VIRIAL  =         0.0000  VOLUME     =         0.0000
                                                    Density    =         0.0000
 DV/DL  =       221.2252
 ------------------------------------------------------------------------------

      A V E R A G E S   O V E R    1000 S T E P S

 NSTEP =   500000   TIME(PS) =    1200.000  TEMP(K) =   300.50  PRESS =    -3.8
 Etot   =    -29521.6004  EKtot   =      6817.3219  EPtot      =    -36338.9222
 BOND   =         1.1785  ANGLE   =         7.4581  DIHED      =         0.0000
 1-4 NB =         0.0000  1-4 EEL =         0.0000  VDWAALS    =      5447.0910
 EELEC  =    -41794.6498  EHBOND  =         0.0000  RESTRAINT  =         0.0000
 EKCMT  =      3430.5074  VIRIAL  =      3439.9074  VOLUME     =    115894.0977
                                                    Density    =         0.9831
 DV/DL  =       214.3317
 ------------------------------------------------------------------------------

      R M S  F L U C T U A T I O N S

 NSTEP =   500000   TIME(PS) =    1200.000  TEMP(K) =     2.50  PRESS =   152.5
 Etot   =        85.7513  EKtot   =        56.7426  EPtot      =        69.1807
 BOND   =         0.8013  ANGLE   =         0.6036  DIHED      =         0.0000
 1-4 NB =         0.0000  1-4 EEL =         0.0000  VDWAALS    =        83.2021
 EELEC  =       117.6336  EHBOND  =         0.0000  RESTRAINT  =         0.0000
 EKCMT  =        49.8068  VIRIAL  =       401.6635  VOLUME     =        17.4300
                                                    Density    =         0.0001
 DV/DL  =        24.7255
 ------------------------------------------------------------------------------

      A V E R A G E S   O V E R    1000 S T E P S

 NSTEP =   500000   TIME(PS) =    1200.000  TEMP(K) =   300.50  PRESS =    -3.8
 Etot   =    -29521.6004  EKtot   =      6817.3219  EPtot      =    -36338.9222
 BOND   =         1.1785  ANGLE   =         7.4581  DIHED      =         0.0000
 1-4 NB =         0.0000  1-4 EEL =         0.0000  VDWAALS    =      5447.0910
 EELEC  =    -41794.6498  EHBOND  =         0.0000  RESTRAINT  =         0.0000
 EKCMT  =      3430.5074  VIRIAL  =      3439.9074  VOLUME     =    115894.0977
                                                    Density    =         0.9831
 DV/DL  =       214.3317
 ------------------------------------------------------------------------------

      R M S  F L U C T U A T I O N S

 NSTEP =   500000   TIME(PS) =    1200.000  TEMP(K) =     2.50  PRESS =   152.5
 Etot   =        85.7513  EKtot   =        56.7426  EPtot      =        69.1807
 BOND   =         0.8013  ANGLE   =         0.6036  DIHED      =         0.0000
 1-4 NB =         0.0000  1-4 EEL =         0.0000  VDWAALS    =        83.2021
 EELEC  =       117.6336  EHBOND  =         0.0000  RESTRAINT  =         0.0000
 EKCMT  =        49.8068  VIRIAL  =       401.6635  VOLUME     =        17.4300
                                                    Density    =         0.0001
 DV/DL  =        24.7255
 ------------------------------------------------------------------------------

      DV/DL, AVERAGES OVER    1000 STEPS

 NSTEP =   500000   TIME(PS) =    1200.000  TEMP(K) =     2.50  PRESS =     0.0
 Etot   =         0.0000  EKtot   =         0.0000  EPtot      =       214.3317
 BOND   =         0.0000  ANGLE   =         0.0000  DIHED      =         0.0000
 1-4 NB =         0.0000  1-4 EEL =         0.0000  VDWAALS    =         0.0000
 EELEC  =       214.3317  EHBOND  =         0.0000  RESTRAINT  =         0.0000
 EKCMT  =         0.0000  VIRIAL  =         0.0000  VOLUME     =         0.0000
                                                    Density    =         0.0000
 DV/DL  =       214.3317
 ------------------------------------------------------------------------------

      A V E R A G E S   O V E R  500000 S T E P S

 NSTEP =   500000   TIME(PS) =    1200.000  TEMP(K) =   300.22  PRESS =   -10.2
 Etot   =    -29476.1447  EKtot   =      6811.1157  EPtot      =    -36287.2603
 BOND   =         1.2810  ANGLE   =         7.7827  DIHED      =         0.0000
 1-4 NB =         0.0000  1-4 EEL =         0.0000  VDWAALS    =      5423.9113
 EELEC  =    -41720.2353  EHBOND  =         0.0000  RESTRAINT  =         0.0000
 EKCMT  =      3417.1160  VIRIAL  =      3444.1618  VOLUME     =    115820.0828
                                                    Density    =         0.9837
 DV/DL  =       223.3730
 ------------------------------------------------------------------------------

      R M S  F L U C T U A T I O N S

 NSTEP =   500000   TIME(PS) =    1200.000  TEMP(K) =     2.82  PRESS =   195.0
 Etot   =       123.2706  EKtot   =        64.0013  EPtot      =       104.0331
 BOND   =         0.8941  ANGLE   =         0.9613  DIHED      =         0.0000
 1-4 NB =         0.0000  1-4 EEL =         0.0000  VDWAALS    =        93.9507
 EELEC  =       161.6359  EHBOND  =         0.0000  RESTRAINT  =         0.0000
 EKCMT  =        45.5030  VIRIAL  =       493.4109  VOLUME     =       798.5104
                                                    Density    =         0.0063
 DV/DL  =        25.2073
 ------------------------------------------------------------------------------

      A V E R A G E S   O V E R  500000 S T E P S

 NSTEP =   500000   TIME(PS) =    1200.000  TEMP(K) =   300.22  PRESS =   -10.2
 Etot   =    -29476.1447  EKtot   =      6811.1157  EPtot      =    -36287.2603
 BOND   =         1.2810  ANGLE   =         7.7827  DIHED      =         0.0000
 1-4 NB =         0.0000  1-4 EEL =         0.0000  VDWAALS    =      5423.9113
 EELEC  =    -41720.2353  EHBOND  =         0.0000  RESTRAINT  =         0.0000
 EKCMT  =      3417.1160  VIRIAL  =      3444.1618  VOLUME     =    115820.0828
                                                    Density    =         0.9837
 DV/DL  =       223.3730
 ------------------------------------------------------------------------------

      R M S  F L U C T U A T I O N S

 NSTEP =   500000   TIME(PS) =    1200.000  TEMP(K) =     2.82  PRESS =   195.0
 Etot   =       123.2706  EKtot   =        64.0013  EPtot      =       104.0331
 BOND   =         0.8941  ANGLE   =         0.9613  DIHED      =         0.0000
 1-4 NB =         0.0000  1-4 EEL =         0.0000  VDWAALS    =        93.9507
 EELEC  =       161.6359  EHBOND  =         0.0000  RESTRAINT  =         0.0000
 EKCMT  =        45.5030  VIRIAL  =       493.4109  VOLUME     =       798.5104
                                                    Density    =         0.0063
 DV/DL  =        25.2073
 ------------------------------------------------------------------------------

      DV/DL, AVERAGES OVER  500000 STEPS

 NSTEP =   500000   TIME(PS) =    1200.000  TEMP(K) =     2.82  PRESS =     0.0
 Etot   =         0.0000  EKtot   =         0.0000  EPtot      =       223.3730
 BOND   =         0.0000  ANGLE   =         0.0000  DIHED      =         0.0000
 1-4 NB =         0.0000  1-4 EEL =         0.0000  VDWAALS    =         0.0000
 EELEC  =       223.3730  EHBOND  =         0.0000  RESTRAINT  =         0.0000
 EKCMT  =         0.0000  VIRIAL  =         0.0000  VOLUME     =         0.0000
                                                    Density    =         0.0000
 DV/DL  =       223.3730
 ------------------------------------------------------------------------------
