-------------------------------------------------------
          Amber 18 PMEMD                              2018
          -------------------------------------------------------

  [-O]verwriting output

File Assignments:

 Here is the input file:

 &cntrl
   nstlim=500000, nscm=1000,
   ntx=5, irest=1, ntpr=1000,
   tempi=300.0, temp0=300.0, ntt=3, gamma_ln=2.0,
   ntp=1, pres0=1.01325, taup=5.0,
   ntb=2, igb=0, cut=10.0,
   dt=0.002, ig=-1,
   ntc=2, ntf=2,
   iwrap=0,
   ntwr=1000, ntwx=50000, ntave=1000,
   ioutfm=1, ntwv=-1,
   ifsc = 0, icfe=1,
   clambda=0.79366,
   timask1=':1',
   timask2=':2', crgmask = ':2',
/

Note: ig = -1. Setting random seed to    39994 based on wallclock time in
      microseconds.

--------------------------------------------------------------------------------
   1.  RESOURCE   USE:
--------------------------------------------------------------------------------

 getting box info from netcdf restart file
 NATOM  =   11419 NTYPES =       4 NBONH =   11409 MBONA  =       8
 NTHETH =       0 MTHETA =      12 NPHIH =       0 MPHIA  =       0
 NHPARM =       0 NPARM  =       0 NNB   =   15234 NRES   =    3805
 NBONA  =       8 NTHETA =      12 NPHIA =       0 NUMBND =       3
 NUMANG =       1 NPTRA  =       0 NATYP =       4 NPHB   =       1
 IFBOX  =       2 NMXRS  =       5 IFCAP =       0 NEXTRA =       0
 NCOPY  =       0

     BOX TYPE: TRUNCATED OCTAHEDRON

--------------------------------------------------------------------------------
   2.  CONTROL  DATA  FOR  THE  RUN
--------------------------------------------------------------------------------

default_name

General flags:
     imin    =       0, nmropt  =       0

Nature and format of input:
     ntx     =       5, irest   =       1, ntrx    =       1

Nature and format of output:
     ntxo    =       2, ntpr    =    1000, ntrx    =       1, ntwr    =    1000
     iwrap   =       0, ntwx    =   50000, ntwv    =      -1, ntwe    =       0
     ioutfm  =       1, ntwprt  =       0, idecomp =       0, rbornstat=      0

Potential function:
     ntf     =       2, ntb     =       2, igb     =       0, nsnb    =      25
     ipol    =       0, gbsa    =       0, iesp    =       0
     dielc   =   1.00000, cut     =  10.00000, intdiel =   1.00000

Frozen or restrained atoms:
     ibelly  =       0, ntr     =       0

Molecular dynamics:
     nstlim  =    500000, nscm    =      1000, nrespa  =         1
     t       =   0.00000, dt      =   0.00200, vlimit  =  -1.00000

Langevin dynamics temperature regulation:
     ig      =   39994
     temp0   = 300.00000, tempi   = 300.00000, gamma_ln=   2.00000

Pressure regulation:
     ntp     =       1
     pres0   =   1.01325, comp    =  44.60000, taup    =   5.00000

SHAKE:
     ntc     =       2, jfastw  =       0
     tol     =   0.00001

Free energy options:
     icfe    =       1, ifsc    =       0, klambda =       1
     clambda =  0.7937, scalpha =  0.5000, scbeta  = 12.0000
     sceeorder =       2
     dynlmb =  0.0000 logdvdl =       0

Ewald parameters:
     verbose =       0, ew_type =       0, nbflag  =       1, use_pme =       1
     vdwmeth =       1, eedmeth =       1, netfrc  =       1
     Box X =   55.004   Box Y =   55.004   Box Z =   55.004
     Alpha =  109.471   Beta  =  109.471   Gamma =  109.471
     NFFT1 =   56       NFFT2 =   56       NFFT3 =   56
     Cutoff=   10.000   Tol   =0.100E-04
     Ewald Coefficient =  0.27511
     Interpolation order =    4
     TI Mask 1 :1; matches      5 atoms
     TI Mask 2 :2; matches      5 atoms
     TI region 1:   11414 atoms
     TI region 2:   11414 atoms
Removing charge of       1.2430 from atom       6
Removing charge of      -1.0605 from atom       7
Removing charge of      -1.0605 from atom       8
Removing charge of      -1.0605 from atom       9
Removing charge of      -1.0605 from atom      10
Total charge of  -2.99900001 removed from       5 atoms
     Checking for mismatched coordinates.

--------------------------------------------------------------------------------
   3.  ATOMIC COORDINATES AND VELOCITIES
--------------------------------------------------------------------------------

default_name
 begin time read from input coords =   200.000 ps

 Number of triangulated 3-point waters found:     3803

     Sum of charges for TI region  1 =  -2.99900001
     Assuming uniform neutralizing plasma

     Sum of charges for TI region  2 =   0.00000000
     Forcing neutrality...

--------------------------------------------------------------------------------
   4.  RESULTS
 NSTEP =     1000   TIME(PS) =     202.000  TEMP(K) =   295.84  PRESS =  -942.2
 Etot   =    -28948.7045  EKtot   =      6711.6366  EPtot      =    -35660.3411
 BOND   =         1.1354  ANGLE   =         7.7509  DIHED      =         0.0000
 1-4 NB =         0.0000  1-4 EEL =         0.0000  VDWAALS    =      5126.6588
 EELEC  =    -40795.8862  EHBOND  =         0.0000  RESTRAINT  =         0.0000
 EKCMT  =      3383.7511  VIRIAL  =      5951.5596  VOLUME     =    126220.0497
                                                    Density    =         0.9026
 DV/DL  =       309.6354
 ------------------------------------------------------------------------------

      A V E R A G E S   O V E R    1000 S T E P S

 NSTEP =     1000   TIME(PS) =     202.000  TEMP(K) =   301.36  PRESS =  -829.9
 Etot   =    -28756.9981  EKtot   =      6836.9561  EPtot      =    -35593.9543
 BOND   =         1.1310  ANGLE   =         7.5035  DIHED      =         0.0000
 1-4 NB =         0.0000  1-4 EEL =         0.0000  VDWAALS    =      5206.6615
 EELEC  =    -40809.2503  EHBOND  =         0.0000  RESTRAINT  =         0.0000
 EKCMT  =      3433.7925  VIRIAL  =      5712.3581  VOLUME     =    127166.4235
                                                    Density    =         0.8959
 DV/DL  =       324.6012
 ------------------------------------------------------------------------------

      R M S  F L U C T U A T I O N S

 NSTEP =     1000   TIME(PS) =     202.000  TEMP(K) =     3.03  PRESS =   126.8
 Etot   =        92.6559  EKtot   =        68.6997  EPtot      =        64.5726
 BOND   =         0.7089  ANGLE   =         0.7255  DIHED      =         0.0000
 1-4 NB =         0.0000  1-4 EEL =         0.0000  VDWAALS    =        73.1593
 EELEC  =        97.9247  EHBOND  =         0.0000  RESTRAINT  =         0.0000
 EKCMT  =        46.1054  VIRIAL  =       355.8453  VOLUME     =       537.9652
                                                    Density    =         0.0038
 DV/DL  =        23.8913
 ------------------------------------------------------------------------------

      A V E R A G E S   O V E R    1000 S T E P S

 NSTEP =     1000   TIME(PS) =     202.000  TEMP(K) =   301.36  PRESS =  -829.9
 Etot   =    -28756.9981  EKtot   =      6836.9561  EPtot      =    -35593.9543
 BOND   =         1.1310  ANGLE   =         7.5035  DIHED      =         0.0000
 1-4 NB =         0.0000  1-4 EEL =         0.0000  VDWAALS    =      5206.6615
 EELEC  =    -40809.2503  EHBOND  =         0.0000  RESTRAINT  =         0.0000
 EKCMT  =      3433.7925  VIRIAL  =      5712.3581  VOLUME     =    127166.4235
                                                    Density    =         0.8959
 DV/DL  =       324.6012
 ------------------------------------------------------------------------------

      R M S  F L U C T U A T I O N S

 NSTEP =     1000   TIME(PS) =     202.000  TEMP(K) =     3.03  PRESS =   126.8
 Etot   =        92.6559  EKtot   =        68.6997  EPtot      =        64.5726
 BOND   =         0.7089  ANGLE   =         0.7255  DIHED      =         0.0000
 1-4 NB =         0.0000  1-4 EEL =         0.0000  VDWAALS    =        73.1593
 EELEC  =        97.9247  EHBOND  =         0.0000  RESTRAINT  =         0.0000
 EKCMT  =        46.1054  VIRIAL  =       355.8453  VOLUME     =       537.9652
                                                    Density    =         0.0038
 DV/DL  =        23.8913
 ------------------------------------------------------------------------------

      DV/DL, AVERAGES OVER    1000 STEPS

 NSTEP =     1000   TIME(PS) =     202.000  TEMP(K) =     3.03  PRESS =     0.0
 Etot   =         0.0000  EKtot   =         0.0000  EPtot      =       324.6012
 BOND   =         0.0000  ANGLE   =         0.0000  DIHED      =         0.0000
 1-4 NB =         0.0000  1-4 EEL =         0.0000  VDWAALS    =         0.0000
 EELEC  =       324.6012  EHBOND  =         0.0000  RESTRAINT  =         0.0000
 EKCMT  =         0.0000  VIRIAL  =         0.0000  VOLUME     =         0.0000
                                                    Density    =         0.0000
 DV/DL  =       324.6012
 ------------------------------------------------------------------------------

      A V E R A G E S   O V E R    1000 S T E P S

 NSTEP =     2000   TIME(PS) =     204.000  TEMP(K) =   300.14  PRESS =  -729.0
 Etot   =    -28942.0858  EKtot   =      6809.2006  EPtot      =    -35751.2865
 BOND   =         0.8723  ANGLE   =         7.4984  DIHED      =         0.0000
 1-4 NB =         0.0000  1-4 EEL =         0.0000  VDWAALS    =      5267.1668
 EELEC  =    -41026.8239  EHBOND  =         0.0000  RESTRAINT  =         0.0000
 EKCMT  =      3431.2276  VIRIAL  =      5405.0040  VOLUME     =    125409.5665
                                                    Density    =         0.9085
 DV/DL  =       311.1381
 ------------------------------------------------------------------------------

      R M S  F L U C T U A T I O N S

 NSTEP =     2000   TIME(PS) =     204.000  TEMP(K) =     2.61  PRESS =   133.8
 Etot   =        77.5025  EKtot   =        59.2645  EPtot      =        80.6921
 BOND   =         0.6065  ANGLE   =         0.6754  DIHED      =         0.0000
 1-4 NB =         0.0000  1-4 EEL =         0.0000  VDWAALS    =        77.9736
 EELEC  =       126.5648  EHBOND  =         0.0000  RESTRAINT  =         0.0000
 EKCMT  =        45.8335  VIRIAL  =       359.1602  VOLUME     =       472.6551
                                                    Density    =         0.0034
 DV/DL  =        30.7030
 ------------------------------------------------------------------------------

      A V E R A G E S   O V E R    1000 S T E P S

 NSTEP =     2000   TIME(PS) =     204.000  TEMP(K) =   300.14  PRESS =  -729.0
 Etot   =    -28942.0858  EKtot   =      6809.2006  EPtot      =    -35751.2865
 BOND   =         0.8723  ANGLE   =         7.4984  DIHED      =         0.0000
 1-4 NB =         0.0000  1-4 EEL =         0.0000  VDWAALS    =      5267.1668
 EELEC  =    -41026.8239  EHBOND  =         0.0000  RESTRAINT  =         0.0000
 EKCMT  =      3431.2276  VIRIAL  =      5405.0040  VOLUME     =    125409.5665
                                                    Density    =         0.9085
 DV/DL  =       311.1381
 ------------------------------------------------------------------------------

      R M S  F L U C T U A T I O N S

 NSTEP =     2000   TIME(PS) =     204.000  TEMP(K) =     2.61  PRESS =   133.8
 Etot   =        77.5025  EKtot   =        59.2645  EPtot      =        80.6921
 BOND   =         0.6065  ANGLE   =         0.6754  DIHED      =         0.0000
 1-4 NB =         0.0000  1-4 EEL =         0.0000  VDWAALS    =        77.9736
 EELEC  =       126.5648  EHBOND  =         0.0000  RESTRAINT  =         0.0000
 EKCMT  =        45.8335  VIRIAL  =       359.1602  VOLUME     =       472.6551
                                                    Density    =         0.0034
 DV/DL  =        30.7030
 ------------------------------------------------------------------------------

      DV/DL, AVERAGES OVER    1000 STEPS

 NSTEP =     2000   TIME(PS) =     204.000  TEMP(K) =     2.61  PRESS =     0.0
 Etot   =         0.0000  EKtot   =         0.0000  EPtot      =       311.1381
 BOND   =         0.0000  ANGLE   =         0.0000  DIHED      =         0.0000
 1-4 NB =         0.0000  1-4 EEL =         0.0000  VDWAALS    =         0.0000
 EELEC  =       311.1381  EHBOND  =         0.0000  RESTRAINT  =         0.0000
 EKCMT  =         0.0000  VIRIAL  =         0.0000  VOLUME     =         0.0000
                                                    Density    =         0.0000
 DV/DL  =       311.1381
 ------------------------------------------------------------------------------

      A V E R A G E S   O V E R    1000 S T E P S

 NSTEP =   500000   TIME(PS) =    1200.000  TEMP(K) =   302.89  PRESS =   100.7
 Etot   =    -29336.0283  EKtot   =      6871.6443  EPtot      =    -36207.6726
 BOND   =         1.1408  ANGLE   =         7.7134  DIHED      =         0.0000
 1-4 NB =         0.0000  1-4 EEL =         0.0000  VDWAALS    =      5432.2583
 EELEC  =    -41648.7852  EHBOND  =         0.0000  RESTRAINT  =         0.0000
 EKCMT  =      3456.3725  VIRIAL  =      3204.8130  VOLUME     =    115753.4313
                                                    Density    =         0.9843
 DV/DL  =       317.3002
 ------------------------------------------------------------------------------

      R M S  F L U C T U A T I O N S

 NSTEP =   500000   TIME(PS) =    1200.000  TEMP(K) =     2.60  PRESS =   207.5
 Etot   =        68.0606  EKtot   =        58.9494  EPtot      =        63.6064
 BOND   =         0.5995  ANGLE   =         0.7326  DIHED      =         0.0000
 1-4 NB =         0.0000  1-4 EEL =         0.0000  VDWAALS    =       100.9697
 EELEC  =       117.4423  EHBOND  =         0.0000  RESTRAINT  =         0.0000
 EKCMT  =        38.7571  VIRIAL  =       512.1048  VOLUME     =        65.2437
                                                    Density    =         0.0006
 DV/DL  =        23.0893
 ------------------------------------------------------------------------------

      A V E R A G E S   O V E R    1000 S T E P S

 NSTEP =   500000   TIME(PS) =    1200.000  TEMP(K) =   302.89  PRESS =   100.7
 Etot   =    -29336.0283  EKtot   =      6871.6443  EPtot      =    -36207.6726
 BOND   =         1.1408  ANGLE   =         7.7134  DIHED      =         0.0000
 1-4 NB =         0.0000  1-4 EEL =         0.0000  VDWAALS    =      5432.2583
 EELEC  =    -41648.7852  EHBOND  =         0.0000  RESTRAINT  =         0.0000
 EKCMT  =      3456.3725  VIRIAL  =      3204.8130  VOLUME     =    115753.4313
                                                    Density    =         0.9843
 DV/DL  =       317.3002
 ------------------------------------------------------------------------------

      R M S  F L U C T U A T I O N S

 NSTEP =   500000   TIME(PS) =    1200.000  TEMP(K) =     2.60  PRESS =   207.5
 Etot   =        68.0606  EKtot   =        58.9494  EPtot      =        63.6064
 BOND   =         0.5995  ANGLE   =         0.7326  DIHED      =         0.0000
 1-4 NB =         0.0000  1-4 EEL =         0.0000  VDWAALS    =       100.9697
 EELEC  =       117.4423  EHBOND  =         0.0000  RESTRAINT  =         0.0000
 EKCMT  =        38.7571  VIRIAL  =       512.1048  VOLUME     =        65.2437
                                                    Density    =         0.0006
 DV/DL  =        23.0893
 ------------------------------------------------------------------------------

      DV/DL, AVERAGES OVER    1000 STEPS

 NSTEP =   500000   TIME(PS) =    1200.000  TEMP(K) =     2.60  PRESS =     0.0
 Etot   =         0.0000  EKtot   =         0.0000  EPtot      =       317.3002
 BOND   =         0.0000  ANGLE   =         0.0000  DIHED      =         0.0000
 1-4 NB =         0.0000  1-4 EEL =         0.0000  VDWAALS    =         0.0000
 EELEC  =       317.3002  EHBOND  =         0.0000  RESTRAINT  =         0.0000
 EKCMT  =         0.0000  VIRIAL  =         0.0000  VOLUME     =         0.0000
                                                    Density    =         0.0000
 DV/DL  =       317.3002
 ------------------------------------------------------------------------------

      A V E R A G E S   O V E R  500000 S T E P S

 NSTEP =   500000   TIME(PS) =    1200.000  TEMP(K) =   300.46  PRESS =   -10.2
 Etot   =    -29482.6074  EKtot   =      6816.5086  EPtot      =    -36299.1160
 BOND   =         1.2570  ANGLE   =         7.7369  DIHED      =         0.0000
 1-4 NB =         0.0000  1-4 EEL =         0.0000  VDWAALS    =      5421.8952
 EELEC  =    -41730.0051  EHBOND  =         0.0000  RESTRAINT  =         0.0000
 EKCMT  =      3421.8723  VIRIAL  =      3448.9775  VOLUME     =    115834.5250
                                                    Density    =         0.9836
 DV/DL  =       317.5471
 ------------------------------------------------------------------------------

      R M S  F L U C T U A T I O N S

 NSTEP =   500000   TIME(PS) =    1200.000  TEMP(K) =     2.81  PRESS =   192.7
 Etot   =       123.2067  EKtot   =        63.7580  EPtot      =       104.0850
 BOND   =         0.8801  ANGLE   =         0.9369  DIHED      =         0.0000
 1-4 NB =         0.0000  1-4 EEL =         0.0000  VDWAALS    =        94.0776
 EELEC  =       160.7384  EHBOND  =         0.0000  RESTRAINT  =         0.0000
 EKCMT  =        45.3446  VIRIAL  =       485.8980  VOLUME     =       897.7784
                                                    Density    =         0.0071
 DV/DL  =        26.5383
 ------------------------------------------------------------------------------

      A V E R A G E S   O V E R  500000 S T E P S

 NSTEP =   500000   TIME(PS) =    1200.000  TEMP(K) =   300.46  PRESS =   -10.2
 Etot   =    -29482.6074  EKtot   =      6816.5086  EPtot      =    -36299.1160
 BOND   =         1.2570  ANGLE   =         7.7369  DIHED      =         0.0000
 1-4 NB =         0.0000  1-4 EEL =         0.0000  VDWAALS    =      5421.8952
 EELEC  =    -41730.0051  EHBOND  =         0.0000  RESTRAINT  =         0.0000
 EKCMT  =      3421.8723  VIRIAL  =      3448.9775  VOLUME     =    115834.5250
                                                    Density    =         0.9836
 DV/DL  =       317.5471
 ------------------------------------------------------------------------------

      R M S  F L U C T U A T I O N S

 NSTEP =   500000   TIME(PS) =    1200.000  TEMP(K) =     2.81  PRESS =   192.7
 Etot   =       123.2067  EKtot   =        63.7580  EPtot      =       104.0850
 BOND   =         0.8801  ANGLE   =         0.9369  DIHED      =         0.0000
 1-4 NB =         0.0000  1-4 EEL =         0.0000  VDWAALS    =        94.0776
 EELEC  =       160.7384  EHBOND  =         0.0000  RESTRAINT  =         0.0000
 EKCMT  =        45.3446  VIRIAL  =       485.8980  VOLUME     =       897.7784
                                                    Density    =         0.0071
 DV/DL  =        26.5383
 ------------------------------------------------------------------------------

      DV/DL, AVERAGES OVER  500000 STEPS

 NSTEP =   500000   TIME(PS) =    1200.000  TEMP(K) =     2.81  PRESS =     0.0
 Etot   =         0.0000  EKtot   =         0.0000  EPtot      =       317.5471
 BOND   =         0.0000  ANGLE   =         0.0000  DIHED      =         0.0000
 1-4 NB =         0.0000  1-4 EEL =         0.0000  VDWAALS    =         0.0000
 EELEC  =       317.5471  EHBOND  =         0.0000  RESTRAINT  =         0.0000
 EKCMT  =         0.0000  VIRIAL  =         0.0000  VOLUME     =         0.0000
                                                    Density    =         0.0000
 DV/DL  =       317.5471
 ------------------------------------------------------------------------------
