-------------------------------------------------------
          Amber 18 PMEMD                              2018
          -------------------------------------------------------

  [-O]verwriting output

File Assignments:

 Here is the input file:

 &cntrl
   nstlim=500000, nscm=1000,
   ntx=5, irest=1, ntpr=1000,
   tempi=300.0, temp0=300.0, ntt=3, gamma_ln=2.0,
   ntp=1, pres0=1.01325, taup=5.0,
   ntb=2, igb=0, cut=10.0,
   dt=0.002, ig=-1,
   ntc=2, ntf=2,
   iwrap=0,
   ntwr=1000, ntwx=50000, ntave=1000,
   ioutfm=1, ntwv=-1,
   ifsc = 0, icfe=1,
   clambda=0.95206,
   timask1=':1',
   timask2=':2', crgmask = ':2',
/

Note: ig = -1. Setting random seed to   108993 based on wallclock time in
      microseconds.

--------------------------------------------------------------------------------
   1.  RESOURCE   USE:
--------------------------------------------------------------------------------

 getting box info from netcdf restart file
 NATOM  =   11419 NTYPES =       4 NBONH =   11409 MBONA  =       8
 NTHETH =       0 MTHETA =      12 NPHIH =       0 MPHIA  =       0
 NHPARM =       0 NPARM  =       0 NNB   =   15234 NRES   =    3805
 NBONA  =       8 NTHETA =      12 NPHIA =       0 NUMBND =       3
 NUMANG =       1 NPTRA  =       0 NATYP =       4 NPHB   =       1
 IFBOX  =       2 NMXRS  =       5 IFCAP =       0 NEXTRA =       0
 NCOPY  =       0

     BOX TYPE: TRUNCATED OCTAHEDRON

--------------------------------------------------------------------------------
   2.  CONTROL  DATA  FOR  THE  RUN
--------------------------------------------------------------------------------

default_name

General flags:
     imin    =       0, nmropt  =       0

Nature and format of input:
     ntx     =       5, irest   =       1, ntrx    =       1

Nature and format of output:
     ntxo    =       2, ntpr    =    1000, ntrx    =       1, ntwr    =    1000
     iwrap   =       0, ntwx    =   50000, ntwv    =      -1, ntwe    =       0
     ioutfm  =       1, ntwprt  =       0, idecomp =       0, rbornstat=      0

Potential function:
     ntf     =       2, ntb     =       2, igb     =       0, nsnb    =      25
     ipol    =       0, gbsa    =       0, iesp    =       0
     dielc   =   1.00000, cut     =  10.00000, intdiel =   1.00000

Frozen or restrained atoms:
     ibelly  =       0, ntr     =       0

Molecular dynamics:
     nstlim  =    500000, nscm    =      1000, nrespa  =         1
     t       =   0.00000, dt      =   0.00200, vlimit  =  -1.00000

Langevin dynamics temperature regulation:
     ig      =  108993
     temp0   = 300.00000, tempi   = 300.00000, gamma_ln=   2.00000

Pressure regulation:
     ntp     =       1
     pres0   =   1.01325, comp    =  44.60000, taup    =   5.00000

SHAKE:
     ntc     =       2, jfastw  =       0
     tol     =   0.00001

Free energy options:
     icfe    =       1, ifsc    =       0, klambda =       1
     clambda =  0.9521, scalpha =  0.5000, scbeta  = 12.0000
     sceeorder =       2
     dynlmb =  0.0000 logdvdl =       0

Ewald parameters:
     verbose =       0, ew_type =       0, nbflag  =       1, use_pme =       1
     vdwmeth =       1, eedmeth =       1, netfrc  =       1
     Box X =   55.004   Box Y =   55.004   Box Z =   55.004
     Alpha =  109.471   Beta  =  109.471   Gamma =  109.471
     NFFT1 =   56       NFFT2 =   56       NFFT3 =   56
     Cutoff=   10.000   Tol   =0.100E-04
     Ewald Coefficient =  0.27511
     Interpolation order =    4
     TI Mask 1 :1; matches      5 atoms
     TI Mask 2 :2; matches      5 atoms
     TI region 1:   11414 atoms
     TI region 2:   11414 atoms
Removing charge of       1.2430 from atom       6
Removing charge of      -1.0605 from atom       7
Removing charge of      -1.0605 from atom       8
Removing charge of      -1.0605 from atom       9
Removing charge of      -1.0605 from atom      10
Total charge of  -2.99900001 removed from       5 atoms
     Checking for mismatched coordinates.

--------------------------------------------------------------------------------
   3.  ATOMIC COORDINATES AND VELOCITIES
--------------------------------------------------------------------------------

default_name
 begin time read from input coords =   200.000 ps

 Number of triangulated 3-point waters found:     3803

     Sum of charges for TI region  1 =  -2.99900001
     Assuming uniform neutralizing plasma

     Sum of charges for TI region  2 =   0.00000000
     Forcing neutrality...

--------------------------------------------------------------------------------
   4.  RESULTS
 NSTEP =     1000   TIME(PS) =     202.000  TEMP(K) =   301.70  PRESS =  -782.2
 Etot   =    -28592.2480  EKtot   =      6844.5305  EPtot      =    -35436.7785
 BOND   =         0.3780  ANGLE   =         8.0210  DIHED      =         0.0000
 1-4 NB =         0.0000  1-4 EEL =         0.0000  VDWAALS    =      5205.9177
 EELEC  =    -40651.0953  EHBOND  =         0.0000  RESTRAINT  =         0.0000
 EKCMT  =      3432.9668  VIRIAL  =      5564.3786  VOLUME     =    126205.5605
                                                    Density    =         0.9027
 DV/DL  =       146.9580
 ------------------------------------------------------------------------------

      A V E R A G E S   O V E R    1000 S T E P S

 NSTEP =     1000   TIME(PS) =     202.000  TEMP(K) =   302.90  PRESS =  -836.2
 Etot   =    -28644.2226  EKtot   =      6871.8280  EPtot      =    -35516.0506
 BOND   =         1.3096  ANGLE   =         8.1673  DIHED      =         0.0000
 1-4 NB =         0.0000  1-4 EEL =         0.0000  VDWAALS    =      5234.7234
 EELEC  =    -40760.2508  EHBOND  =         0.0000  RESTRAINT  =         0.0000
 EKCMT  =      3462.6916  VIRIAL  =      5758.3580  VOLUME     =    127102.0976
                                                    Density    =         0.8964
 DV/DL  =       152.2270
 ------------------------------------------------------------------------------

      R M S  F L U C T U A T I O N S

 NSTEP =     1000   TIME(PS) =     202.000  TEMP(K) =     2.51  PRESS =   158.6
 Etot   =        81.4064  EKtot   =        56.9875  EPtot      =        71.6924
 BOND   =         0.8512  ANGLE   =         0.7905  DIHED      =         0.0000
 1-4 NB =         0.0000  1-4 EEL =         0.0000  VDWAALS    =        78.0706
 EELEC  =       111.7045  EHBOND  =         0.0000  RESTRAINT  =         0.0000
 EKCMT  =        37.5795  VIRIAL  =       440.8095  VOLUME     =       551.6932
                                                    Density    =         0.0039
 DV/DL  =        22.0980
 ------------------------------------------------------------------------------

      A V E R A G E S   O V E R    1000 S T E P S

 NSTEP =     1000   TIME(PS) =     202.000  TEMP(K) =   302.90  PRESS =  -836.2
 Etot   =    -28644.2226  EKtot   =      6871.8280  EPtot      =    -35516.0506
 BOND   =         1.3096  ANGLE   =         8.1673  DIHED      =         0.0000
 1-4 NB =         0.0000  1-4 EEL =         0.0000  VDWAALS    =      5234.7234
 EELEC  =    -40760.2508  EHBOND  =         0.0000  RESTRAINT  =         0.0000
 EKCMT  =      3462.6916  VIRIAL  =      5758.3580  VOLUME     =    127102.0976
                                                    Density    =         0.8964
 DV/DL  =       152.2270
 ------------------------------------------------------------------------------

      R M S  F L U C T U A T I O N S

 NSTEP =     1000   TIME(PS) =     202.000  TEMP(K) =     2.51  PRESS =   158.6
 Etot   =        81.4064  EKtot   =        56.9875  EPtot      =        71.6924
 BOND   =         0.8512  ANGLE   =         0.7905  DIHED      =         0.0000
 1-4 NB =         0.0000  1-4 EEL =         0.0000  VDWAALS    =        78.0706
 EELEC  =       111.7045  EHBOND  =         0.0000  RESTRAINT  =         0.0000
 EKCMT  =        37.5795  VIRIAL  =       440.8095  VOLUME     =       551.6932
                                                    Density    =         0.0039
 DV/DL  =        22.0980
 ------------------------------------------------------------------------------

      DV/DL, AVERAGES OVER    1000 STEPS

 NSTEP =     1000   TIME(PS) =     202.000  TEMP(K) =     2.51  PRESS =     0.0
 Etot   =         0.0000  EKtot   =         0.0000  EPtot      =       152.2270
 BOND   =         0.0000  ANGLE   =         0.0000  DIHED      =         0.0000
 1-4 NB =         0.0000  1-4 EEL =         0.0000  VDWAALS    =         0.0000
 EELEC  =       152.2270  EHBOND  =         0.0000  RESTRAINT  =         0.0000
 EKCMT  =         0.0000  VIRIAL  =         0.0000  VOLUME     =         0.0000
                                                    Density    =         0.0000
 DV/DL  =       152.2270
 ------------------------------------------------------------------------------

      A V E R A G E S   O V E R    1000 S T E P S

 NSTEP =     2000   TIME(PS) =     204.000  TEMP(K) =   302.86  PRESS =  -755.5
 Etot   =    -28655.4856  EKtot   =      6870.8536  EPtot      =    -35526.3392
 BOND   =         1.2503  ANGLE   =         8.1536  DIHED      =         0.0000
 1-4 NB =         0.0000  1-4 EEL =         0.0000  VDWAALS    =      5206.2391
 EELEC  =    -40741.9822  EHBOND  =         0.0000  RESTRAINT  =         0.0000
 EKCMT  =      3467.8398  VIRIAL  =      5512.6550  VOLUME     =    125294.8702
                                                    Density    =         0.9093
 DV/DL  =       162.9992
 ------------------------------------------------------------------------------

      R M S  F L U C T U A T I O N S

 NSTEP =     2000   TIME(PS) =     204.000  TEMP(K) =     2.53  PRESS =   204.9
 Etot   =        69.4499  EKtot   =        57.3378  EPtot      =        69.6202
 BOND   =         0.9682  ANGLE   =         1.1609  DIHED      =         0.0000
 1-4 NB =         0.0000  1-4 EEL =         0.0000  VDWAALS    =       106.8750
 EELEC  =       148.2396  EHBOND  =         0.0000  RESTRAINT  =         0.0000
 EKCMT  =        41.2792  VIRIAL  =       549.3838  VOLUME     =       459.8785
                                                    Density    =         0.0033
 DV/DL  =        26.6094
 ------------------------------------------------------------------------------

      A V E R A G E S   O V E R    1000 S T E P S

 NSTEP =     2000   TIME(PS) =     204.000  TEMP(K) =   302.86  PRESS =  -755.5
 Etot   =    -28655.4856  EKtot   =      6870.8536  EPtot      =    -35526.3392
 BOND   =         1.2503  ANGLE   =         8.1536  DIHED      =         0.0000
 1-4 NB =         0.0000  1-4 EEL =         0.0000  VDWAALS    =      5206.2391
 EELEC  =    -40741.9822  EHBOND  =         0.0000  RESTRAINT  =         0.0000
 EKCMT  =      3467.8398  VIRIAL  =      5512.6550  VOLUME     =    125294.8702
                                                    Density    =         0.9093
 DV/DL  =       162.9992
 ------------------------------------------------------------------------------

      R M S  F L U C T U A T I O N S

 NSTEP =     2000   TIME(PS) =     204.000  TEMP(K) =     2.53  PRESS =   204.9
 Etot   =        69.4499  EKtot   =        57.3378  EPtot      =        69.6202
 BOND   =         0.9682  ANGLE   =         1.1609  DIHED      =         0.0000
 1-4 NB =         0.0000  1-4 EEL =         0.0000  VDWAALS    =       106.8750
 EELEC  =       148.2396  EHBOND  =         0.0000  RESTRAINT  =         0.0000
 EKCMT  =        41.2792  VIRIAL  =       549.3838  VOLUME     =       459.8785
                                                    Density    =         0.0033
 DV/DL  =        26.6094
 ------------------------------------------------------------------------------

      DV/DL, AVERAGES OVER    1000 STEPS

 NSTEP =     2000   TIME(PS) =     204.000  TEMP(K) =     2.53  PRESS =     0.0
 Etot   =         0.0000  EKtot   =         0.0000  EPtot      =       162.9992
 BOND   =         0.0000  ANGLE   =         0.0000  DIHED      =         0.0000
 1-4 NB =         0.0000  1-4 EEL =         0.0000  VDWAALS    =         0.0000
 EELEC  =       162.9992  EHBOND  =         0.0000  RESTRAINT  =         0.0000
 EKCMT  =         0.0000  VIRIAL  =         0.0000  VOLUME     =         0.0000
                                                    Density    =         0.0000
 DV/DL  =       162.9992
 ------------------------------------------------------------------------------

      A V E R A G E S   O V E R    1000 S T E P S

 NSTEP =   500000   TIME(PS) =    1200.000  TEMP(K) =   299.39  PRESS =   -45.4
 Etot   =    -29506.4509  EKtot   =      6792.1849  EPtot      =    -36298.6358
 BOND   =         1.2447  ANGLE   =         7.8056  DIHED      =         0.0000
 1-4 NB =         0.0000  1-4 EEL =         0.0000  VDWAALS    =      5416.7401
 EELEC  =    -41724.4262  EHBOND  =         0.0000  RESTRAINT  =         0.0000
 EKCMT  =      3397.3979  VIRIAL  =      3510.9057  VOLUME     =    115805.2805
                                                    Density    =         0.9838
 DV/DL  =       154.2763
 ------------------------------------------------------------------------------

      R M S  F L U C T U A T I O N S

 NSTEP =   500000   TIME(PS) =    1200.000  TEMP(K) =     2.47  PRESS =   189.6
 Etot   =        75.8153  EKtot   =        56.1109  EPtot      =        72.0109
 BOND   =         0.6648  ANGLE   =         1.1257  DIHED      =         0.0000
 1-4 NB =         0.0000  1-4 EEL =         0.0000  VDWAALS    =       112.1971
 EELEC  =       156.5483  EHBOND  =         0.0000  RESTRAINT  =         0.0000
 EKCMT  =        40.2797  VIRIAL  =       479.2101  VOLUME     =        28.6182
                                                    Density    =         0.0002
 DV/DL  =        22.3846
 ------------------------------------------------------------------------------

      A V E R A G E S   O V E R    1000 S T E P S

 NSTEP =   500000   TIME(PS) =    1200.000  TEMP(K) =   299.39  PRESS =   -45.4
 Etot   =    -29506.4509  EKtot   =      6792.1849  EPtot      =    -36298.6358
 BOND   =         1.2447  ANGLE   =         7.8056  DIHED      =         0.0000
 1-4 NB =         0.0000  1-4 EEL =         0.0000  VDWAALS    =      5416.7401
 EELEC  =    -41724.4262  EHBOND  =         0.0000  RESTRAINT  =         0.0000
 EKCMT  =      3397.3979  VIRIAL  =      3510.9057  VOLUME     =    115805.2805
                                                    Density    =         0.9838
 DV/DL  =       154.2763
 ------------------------------------------------------------------------------

      R M S  F L U C T U A T I O N S

 NSTEP =   500000   TIME(PS) =    1200.000  TEMP(K) =     2.47  PRESS =   189.6
 Etot   =        75.8153  EKtot   =        56.1109  EPtot      =        72.0109
 BOND   =         0.6648  ANGLE   =         1.1257  DIHED      =         0.0000
 1-4 NB =         0.0000  1-4 EEL =         0.0000  VDWAALS    =       112.1971
 EELEC  =       156.5483  EHBOND  =         0.0000  RESTRAINT  =         0.0000
 EKCMT  =        40.2797  VIRIAL  =       479.2101  VOLUME     =        28.6182
                                                    Density    =         0.0002
 DV/DL  =        22.3846
 ------------------------------------------------------------------------------

      DV/DL, AVERAGES OVER    1000 STEPS

 NSTEP =   500000   TIME(PS) =    1200.000  TEMP(K) =     2.47  PRESS =     0.0
 Etot   =         0.0000  EKtot   =         0.0000  EPtot      =       154.2763
 BOND   =         0.0000  ANGLE   =         0.0000  DIHED      =         0.0000
 1-4 NB =         0.0000  1-4 EEL =         0.0000  VDWAALS    =         0.0000
 EELEC  =       154.2763  EHBOND  =         0.0000  RESTRAINT  =         0.0000
 EKCMT  =         0.0000  VIRIAL  =         0.0000  VOLUME     =         0.0000
                                                    Density    =         0.0000
 DV/DL  =       154.2763
 ------------------------------------------------------------------------------

      A V E R A G E S   O V E R  500000 S T E P S

 NSTEP =   500000   TIME(PS) =    1200.000  TEMP(K) =   300.15  PRESS =   -10.4
 Etot   =    -29465.3804  EKtot   =      6809.4416  EPtot      =    -36274.8221
 BOND   =         1.2465  ANGLE   =         7.7424  DIHED      =         0.0000
 1-4 NB =         0.0000  1-4 EEL =         0.0000  VDWAALS    =      5422.7398
 EELEC  =    -41706.5507  EHBOND  =         0.0000  RESTRAINT  =         0.0000
 EKCMT  =      3415.5177  VIRIAL  =      3442.9131  VOLUME     =    115845.9397
                                                    Density    =         0.9835
 DV/DL  =       158.6473
 ------------------------------------------------------------------------------

      R M S  F L U C T U A T I O N S

 NSTEP =   500000   TIME(PS) =    1200.000  TEMP(K) =     2.79  PRESS =   190.5
 Etot   =       127.5045  EKtot   =        63.3309  EPtot      =       107.9140
 BOND   =         0.8744  ANGLE   =         0.9364  DIHED      =         0.0000
 1-4 NB =         0.0000  1-4 EEL =         0.0000  VDWAALS    =        93.6505
 EELEC  =       164.2718  EHBOND  =         0.0000  RESTRAINT  =         0.0000
 EKCMT  =        45.0413  VIRIAL  =       482.0339  VOLUME     =       894.8851
                                                    Density    =         0.0071
 DV/DL  =        24.0497
 ------------------------------------------------------------------------------

      A V E R A G E S   O V E R  500000 S T E P S

 NSTEP =   500000   TIME(PS) =    1200.000  TEMP(K) =   300.15  PRESS =   -10.4
 Etot   =    -29465.3804  EKtot   =      6809.4416  EPtot      =    -36274.8221
 BOND   =         1.2465  ANGLE   =         7.7424  DIHED      =         0.0000
 1-4 NB =         0.0000  1-4 EEL =         0.0000  VDWAALS    =      5422.7398
 EELEC  =    -41706.5507  EHBOND  =         0.0000  RESTRAINT  =         0.0000
 EKCMT  =      3415.5177  VIRIAL  =      3442.9131  VOLUME     =    115845.9397
                                                    Density    =         0.9835
 DV/DL  =       158.6473
 ------------------------------------------------------------------------------

      R M S  F L U C T U A T I O N S

 NSTEP =   500000   TIME(PS) =    1200.000  TEMP(K) =     2.79  PRESS =   190.5
 Etot   =       127.5045  EKtot   =        63.3309  EPtot      =       107.9140
 BOND   =         0.8744  ANGLE   =         0.9364  DIHED      =         0.0000
 1-4 NB =         0.0000  1-4 EEL =         0.0000  VDWAALS    =        93.6505
 EELEC  =       164.2718  EHBOND  =         0.0000  RESTRAINT  =         0.0000
 EKCMT  =        45.0413  VIRIAL  =       482.0339  VOLUME     =       894.8851
                                                    Density    =         0.0071
 DV/DL  =        24.0497
 ------------------------------------------------------------------------------

      DV/DL, AVERAGES OVER  500000 STEPS

 NSTEP =   500000   TIME(PS) =    1200.000  TEMP(K) =     2.79  PRESS =     0.0
 Etot   =         0.0000  EKtot   =         0.0000  EPtot      =       158.6473
 BOND   =         0.0000  ANGLE   =         0.0000  DIHED      =         0.0000
 1-4 NB =         0.0000  1-4 EEL =         0.0000  VDWAALS    =         0.0000
 EELEC  =       158.6473  EHBOND  =         0.0000  RESTRAINT  =         0.0000
 EKCMT  =         0.0000  VIRIAL  =         0.0000  VOLUME     =         0.0000
                                                    Density    =         0.0000
 DV/DL  =       158.6473
 ------------------------------------------------------------------------------
