-------------------------------------------------------
          Amber 18 PMEMD                              2018
          -------------------------------------------------------

  [-O]verwriting output

File Assignments:

 Here is the input file:

 &cntrl
   nstlim=500000, nscm=1000,
   ntx=5, irest=1, ntpr=1000,
   tempi=300.0, temp0=300.0, ntt=3, gamma_ln=2.0,
   ntp=1, pres0=1.01325, taup=5.0,
   ntb=2, igb=0, cut=10.0,
   dt=0.002, ig=-1,
   ntc=2, ntf=2,
   iwrap=0,
   ntwr=1000, ntwx=50000, ntave=1000,
   ioutfm=1, ntwv=-1,
   ifsc = 0, icfe=1,
   clambda=0.43738,
   timask1=':1',
   timask2=':2', crgmask = ':2',
/

Note: ig = -1. Setting random seed to   352598 based on wallclock time in
      microseconds.

--------------------------------------------------------------------------------
   1.  RESOURCE   USE:
--------------------------------------------------------------------------------

 getting box info from netcdf restart file
 NATOM  =   11419 NTYPES =       4 NBONH =   11409 MBONA  =       8
 NTHETH =       0 MTHETA =      12 NPHIH =       0 MPHIA  =       0
 NHPARM =       0 NPARM  =       0 NNB   =   15234 NRES   =    3805
 NBONA  =       8 NTHETA =      12 NPHIA =       0 NUMBND =       3
 NUMANG =       1 NPTRA  =       0 NATYP =       4 NPHB   =       1
 IFBOX  =       2 NMXRS  =       5 IFCAP =       0 NEXTRA =       0
 NCOPY  =       0

     BOX TYPE: TRUNCATED OCTAHEDRON

--------------------------------------------------------------------------------
   2.  CONTROL  DATA  FOR  THE  RUN
--------------------------------------------------------------------------------

default_name

General flags:
     imin    =       0, nmropt  =       0

Nature and format of input:
     ntx     =       5, irest   =       1, ntrx    =       1

Nature and format of output:
     ntxo    =       2, ntpr    =    1000, ntrx    =       1, ntwr    =    1000
     iwrap   =       0, ntwx    =   50000, ntwv    =      -1, ntwe    =       0
     ioutfm  =       1, ntwprt  =       0, idecomp =       0, rbornstat=      0

Potential function:
     ntf     =       2, ntb     =       2, igb     =       0, nsnb    =      25
     ipol    =       0, gbsa    =       0, iesp    =       0
     dielc   =   1.00000, cut     =  10.00000, intdiel =   1.00000

Frozen or restrained atoms:
     ibelly  =       0, ntr     =       0

Molecular dynamics:
     nstlim  =    500000, nscm    =      1000, nrespa  =         1
     t       =   0.00000, dt      =   0.00200, vlimit  =  -1.00000

Langevin dynamics temperature regulation:
     ig      =  352598
     temp0   = 300.00000, tempi   = 300.00000, gamma_ln=   2.00000

Pressure regulation:
     ntp     =       1
     pres0   =   1.01325, comp    =  44.60000, taup    =   5.00000

SHAKE:
     ntc     =       2, jfastw  =       0
     tol     =   0.00001

Free energy options:
     icfe    =       1, ifsc    =       0, klambda =       1
     clambda =  0.4374, scalpha =  0.5000, scbeta  = 12.0000
     sceeorder =       2
     dynlmb =  0.0000 logdvdl =       0

Ewald parameters:
     verbose =       0, ew_type =       0, nbflag  =       1, use_pme =       1
     vdwmeth =       1, eedmeth =       1, netfrc  =       1
     Box X =   55.004   Box Y =   55.004   Box Z =   55.004
     Alpha =  109.471   Beta  =  109.471   Gamma =  109.471
     NFFT1 =   56       NFFT2 =   56       NFFT3 =   56
     Cutoff=   10.000   Tol   =0.100E-04
     Ewald Coefficient =  0.27511
     Interpolation order =    4
     TI Mask 1 :1; matches      5 atoms
     TI Mask 2 :2; matches      5 atoms
     TI region 1:   11414 atoms
     TI region 2:   11414 atoms
Removing charge of       1.2430 from atom       6
Removing charge of      -1.0605 from atom       7
Removing charge of      -1.0605 from atom       8
Removing charge of      -1.0605 from atom       9
Removing charge of      -1.0605 from atom      10
Total charge of  -2.99900001 removed from       5 atoms
     Checking for mismatched coordinates.

--------------------------------------------------------------------------------
   3.  ATOMIC COORDINATES AND VELOCITIES
--------------------------------------------------------------------------------

default_name
 begin time read from input coords =   200.000 ps

 Number of triangulated 3-point waters found:     3803

     Sum of charges for TI region  1 =  -2.99900001
     Assuming uniform neutralizing plasma

     Sum of charges for TI region  2 =   0.00000000
     Forcing neutrality...

--------------------------------------------------------------------------------
   4.  RESULTS
 NSTEP =     1000   TIME(PS) =     202.000  TEMP(K) =   302.09  PRESS =  -902.5
 Etot   =    -29107.7511  EKtot   =      6853.3987  EPtot      =    -35961.1499
 BOND   =         0.4998  ANGLE   =         9.5370  DIHED      =         0.0000
 1-4 NB =         0.0000  1-4 EEL =         0.0000  VDWAALS    =      5273.2863
 EELEC  =    -41244.4729  EHBOND  =         0.0000  RESTRAINT  =         0.0000
 EKCMT  =      3412.6850  VIRIAL  =      5865.9713  VOLUME     =    125894.5454
                                                    Density    =         0.9050
 DV/DL  =       704.4194
 ------------------------------------------------------------------------------

      A V E R A G E S   O V E R    1000 S T E P S

 NSTEP =     1000   TIME(PS) =     202.000  TEMP(K) =   299.73  PRESS =  -974.6
 Etot   =    -29053.6956  EKtot   =      6799.9248  EPtot      =    -35853.6204
 BOND   =         0.6975  ANGLE   =         7.5861  DIHED      =         0.0000
 1-4 NB =         0.0000  1-4 EEL =         0.0000  VDWAALS    =      5212.5089
 EELEC  =    -41074.4129  EHBOND  =         0.0000  RESTRAINT  =         0.0000
 EKCMT  =      3412.6142  VIRIAL  =      6085.0186  VOLUME     =    126951.1154
                                                    Density    =         0.8975
 DV/DL  =       727.8156
 ------------------------------------------------------------------------------

      R M S  F L U C T U A T I O N S

 NSTEP =     1000   TIME(PS) =     202.000  TEMP(K) =     3.31  PRESS =   174.2
 Etot   =        86.0556  EKtot   =        75.0090  EPtot      =        59.9198
 BOND   =         0.4723  ANGLE   =         0.7447  DIHED      =         0.0000
 1-4 NB =         0.0000  1-4 EEL =         0.0000  VDWAALS    =        85.8303
 EELEC  =       105.1933  EHBOND  =         0.0000  RESTRAINT  =         0.0000
 EKCMT  =        48.7734  VIRIAL  =       465.0709  VOLUME     =       630.0855
                                                    Density    =         0.0045
 DV/DL  =        21.7728
 ------------------------------------------------------------------------------

      A V E R A G E S   O V E R    1000 S T E P S

 NSTEP =     1000   TIME(PS) =     202.000  TEMP(K) =   299.73  PRESS =  -974.6
 Etot   =    -29053.6956  EKtot   =      6799.9248  EPtot      =    -35853.6204
 BOND   =         0.6975  ANGLE   =         7.5861  DIHED      =         0.0000
 1-4 NB =         0.0000  1-4 EEL =         0.0000  VDWAALS    =      5212.5089
 EELEC  =    -41074.4129  EHBOND  =         0.0000  RESTRAINT  =         0.0000
 EKCMT  =      3412.6142  VIRIAL  =      6085.0186  VOLUME     =    126951.1154
                                                    Density    =         0.8975
 DV/DL  =       727.8156
 ------------------------------------------------------------------------------

      R M S  F L U C T U A T I O N S

 NSTEP =     1000   TIME(PS) =     202.000  TEMP(K) =     3.31  PRESS =   174.2
 Etot   =        86.0556  EKtot   =        75.0090  EPtot      =        59.9198
 BOND   =         0.4723  ANGLE   =         0.7447  DIHED      =         0.0000
 1-4 NB =         0.0000  1-4 EEL =         0.0000  VDWAALS    =        85.8303
 EELEC  =       105.1933  EHBOND  =         0.0000  RESTRAINT  =         0.0000
 EKCMT  =        48.7734  VIRIAL  =       465.0709  VOLUME     =       630.0855
                                                    Density    =         0.0045
 DV/DL  =        21.7728
 ------------------------------------------------------------------------------

      DV/DL, AVERAGES OVER    1000 STEPS

 NSTEP =     1000   TIME(PS) =     202.000  TEMP(K) =     3.31  PRESS =     0.0
 Etot   =         0.0000  EKtot   =         0.0000  EPtot      =       727.8156
 BOND   =         0.0000  ANGLE   =         0.0000  DIHED      =         0.0000
 1-4 NB =         0.0000  1-4 EEL =         0.0000  VDWAALS    =         0.0000
 EELEC  =       727.8156  EHBOND  =         0.0000  RESTRAINT  =         0.0000
 EKCMT  =         0.0000  VIRIAL  =         0.0000  VOLUME     =         0.0000
                                                    Density    =         0.0000
 DV/DL  =       727.8156
 ------------------------------------------------------------------------------

      A V E R A G E S   O V E R    1000 S T E P S

 NSTEP =     2000   TIME(PS) =     204.000  TEMP(K) =   299.43  PRESS =  -830.4
 Etot   =    -29184.5351  EKtot   =      6793.1816  EPtot      =    -35977.7166
 BOND   =         1.5338  ANGLE   =         7.8565  DIHED      =         0.0000
 1-4 NB =         0.0000  1-4 EEL =         0.0000  VDWAALS    =      5245.4019
 EELEC  =    -41232.5088  EHBOND  =         0.0000  RESTRAINT  =         0.0000
 EKCMT  =      3399.8756  VIRIAL  =      5640.4148  VOLUME     =    124906.3748
                                                    Density    =         0.9121
 DV/DL  =       706.8375
 ------------------------------------------------------------------------------

      R M S  F L U C T U A T I O N S

 NSTEP =     2000   TIME(PS) =     204.000  TEMP(K) =     2.47  PRESS =   183.1
 Etot   =        67.7309  EKtot   =        55.9870  EPtot      =        60.1877
 BOND   =         0.8760  ANGLE   =         0.8319  DIHED      =         0.0000
 1-4 NB =         0.0000  1-4 EEL =         0.0000  VDWAALS    =        85.7796
 EELEC  =       110.4635  EHBOND  =         0.0000  RESTRAINT  =         0.0000
 EKCMT  =        40.6702  VIRIAL  =       501.3852  VOLUME     =       534.0095
                                                    Density    =         0.0039
 DV/DL  =        24.9875
 ------------------------------------------------------------------------------

      A V E R A G E S   O V E R    1000 S T E P S

 NSTEP =     2000   TIME(PS) =     204.000  TEMP(K) =   299.43  PRESS =  -830.4
 Etot   =    -29184.5351  EKtot   =      6793.1816  EPtot      =    -35977.7166
 BOND   =         1.5338  ANGLE   =         7.8565  DIHED      =         0.0000
 1-4 NB =         0.0000  1-4 EEL =         0.0000  VDWAALS    =      5245.4019
 EELEC  =    -41232.5088  EHBOND  =         0.0000  RESTRAINT  =         0.0000
 EKCMT  =      3399.8756  VIRIAL  =      5640.4148  VOLUME     =    124906.3748
                                                    Density    =         0.9121
 DV/DL  =       706.8375
 ------------------------------------------------------------------------------

      R M S  F L U C T U A T I O N S

 NSTEP =     2000   TIME(PS) =     204.000  TEMP(K) =     2.47  PRESS =   183.1
 Etot   =        67.7309  EKtot   =        55.9870  EPtot      =        60.1877
 BOND   =         0.8760  ANGLE   =         0.8319  DIHED      =         0.0000
 1-4 NB =         0.0000  1-4 EEL =         0.0000  VDWAALS    =        85.7796
 EELEC  =       110.4635  EHBOND  =         0.0000  RESTRAINT  =         0.0000
 EKCMT  =        40.6702  VIRIAL  =       501.3852  VOLUME     =       534.0095
                                                    Density    =         0.0039
 DV/DL  =        24.9875
 ------------------------------------------------------------------------------

      DV/DL, AVERAGES OVER    1000 STEPS

 NSTEP =     2000   TIME(PS) =     204.000  TEMP(K) =     2.47  PRESS =     0.0
 Etot   =         0.0000  EKtot   =         0.0000  EPtot      =       706.8375
 BOND   =         0.0000  ANGLE   =         0.0000  DIHED      =         0.0000
 1-4 NB =         0.0000  1-4 EEL =         0.0000  VDWAALS    =         0.0000
 EELEC  =       706.8375  EHBOND  =         0.0000  RESTRAINT  =         0.0000
 EKCMT  =         0.0000  VIRIAL  =         0.0000  VOLUME     =         0.0000
                                                    Density    =         0.0000
 DV/DL  =       706.8375
 ------------------------------------------------------------------------------

      A V E R A G E S   O V E R    1000 S T E P S

 NSTEP =   500000   TIME(PS) =    1200.000  TEMP(K) =   299.88  PRESS =    43.9
 Etot   =    -29698.1306  EKtot   =      6803.3040  EPtot      =    -36501.4346
 BOND   =         0.9960  ANGLE   =         8.1291  DIHED      =         0.0000
 1-4 NB =         0.0000  1-4 EEL =         0.0000  VDWAALS    =      5466.1308
 EELEC  =    -41976.6905  EHBOND  =         0.0000  RESTRAINT  =         0.0000
 EKCMT  =      3417.4654  VIRIAL  =      3307.6755  VOLUME     =    115732.7245
                                                    Density    =         0.9844
 DV/DL  =       704.9150
 ------------------------------------------------------------------------------

      R M S  F L U C T U A T I O N S

 NSTEP =   500000   TIME(PS) =    1200.000  TEMP(K) =     2.68  PRESS =   148.7
 Etot   =        97.3822  EKtot   =        60.7142  EPtot      =        80.0677
 BOND   =         0.5576  ANGLE   =         1.2123  DIHED      =         0.0000
 1-4 NB =         0.0000  1-4 EEL =         0.0000  VDWAALS    =        79.0918
 EELEC  =       125.5875  EHBOND  =         0.0000  RESTRAINT  =         0.0000
 EKCMT  =        44.2750  VIRIAL  =       382.2526  VOLUME     =        43.2508
                                                    Density    =         0.0004
 DV/DL  =        20.1440
 ------------------------------------------------------------------------------

      A V E R A G E S   O V E R    1000 S T E P S

 NSTEP =   500000   TIME(PS) =    1200.000  TEMP(K) =   299.88  PRESS =    43.9
 Etot   =    -29698.1306  EKtot   =      6803.3040  EPtot      =    -36501.4346
 BOND   =         0.9960  ANGLE   =         8.1291  DIHED      =         0.0000
 1-4 NB =         0.0000  1-4 EEL =         0.0000  VDWAALS    =      5466.1308
 EELEC  =    -41976.6905  EHBOND  =         0.0000  RESTRAINT  =         0.0000
 EKCMT  =      3417.4654  VIRIAL  =      3307.6755  VOLUME     =    115732.7245
                                                    Density    =         0.9844
 DV/DL  =       704.9150
 ------------------------------------------------------------------------------

      R M S  F L U C T U A T I O N S

 NSTEP =   500000   TIME(PS) =    1200.000  TEMP(K) =     2.68  PRESS =   148.7
 Etot   =        97.3822  EKtot   =        60.7142  EPtot      =        80.0677
 BOND   =         0.5576  ANGLE   =         1.2123  DIHED      =         0.0000
 1-4 NB =         0.0000  1-4 EEL =         0.0000  VDWAALS    =        79.0918
 EELEC  =       125.5875  EHBOND  =         0.0000  RESTRAINT  =         0.0000
 EKCMT  =        44.2750  VIRIAL  =       382.2526  VOLUME     =        43.2508
                                                    Density    =         0.0004
 DV/DL  =        20.1440
 ------------------------------------------------------------------------------

      DV/DL, AVERAGES OVER    1000 STEPS

 NSTEP =   500000   TIME(PS) =    1200.000  TEMP(K) =     2.68  PRESS =     0.0
 Etot   =         0.0000  EKtot   =         0.0000  EPtot      =       704.9150
 BOND   =         0.0000  ANGLE   =         0.0000  DIHED      =         0.0000
 1-4 NB =         0.0000  1-4 EEL =         0.0000  VDWAALS    =         0.0000
 EELEC  =       704.9150  EHBOND  =         0.0000  RESTRAINT  =         0.0000
 EKCMT  =         0.0000  VIRIAL  =         0.0000  VOLUME     =         0.0000
                                                    Density    =         0.0000
 DV/DL  =       704.9150
 ------------------------------------------------------------------------------

      A V E R A G E S   O V E R  500000 S T E P S

 NSTEP =   500000   TIME(PS) =    1200.000  TEMP(K) =   300.34  PRESS =   -10.3
 Etot   =    -29694.3112  EKtot   =      6813.6741  EPtot      =    -36507.9853
 BOND   =         1.2871  ANGLE   =         7.7516  DIHED      =         0.0000
 1-4 NB =         0.0000  1-4 EEL =         0.0000  VDWAALS    =      5432.9741
 EELEC  =    -41949.9981  EHBOND  =         0.0000  RESTRAINT  =         0.0000
 EKCMT  =      3418.7992  VIRIAL  =      3446.1091  VOLUME     =    115651.1249
                                                    Density    =         0.9852
 DV/DL  =       710.8110
 ------------------------------------------------------------------------------

      R M S  F L U C T U A T I O N S

 NSTEP =   500000   TIME(PS) =    1200.000  TEMP(K) =     2.80  PRESS =   193.6
 Etot   =       121.7435  EKtot   =        63.4321  EPtot      =       104.0730
 BOND   =         0.9196  ANGLE   =         0.9425  DIHED      =         0.0000
 1-4 NB =         0.0000  1-4 EEL =         0.0000  VDWAALS    =        93.6473
 EELEC  =       160.3008  EHBOND  =         0.0000  RESTRAINT  =         0.0000
 EKCMT  =        45.4953  VIRIAL  =       487.9758  VOLUME     =       881.2352
                                                    Density    =         0.0070
 DV/DL  =        26.6655
 ------------------------------------------------------------------------------

      A V E R A G E S   O V E R  500000 S T E P S

 NSTEP =   500000   TIME(PS) =    1200.000  TEMP(K) =   300.34  PRESS =   -10.3
 Etot   =    -29694.3112  EKtot   =      6813.6741  EPtot      =    -36507.9853
 BOND   =         1.2871  ANGLE   =         7.7516  DIHED      =         0.0000
 1-4 NB =         0.0000  1-4 EEL =         0.0000  VDWAALS    =      5432.9741
 EELEC  =    -41949.9981  EHBOND  =         0.0000  RESTRAINT  =         0.0000
 EKCMT  =      3418.7992  VIRIAL  =      3446.1091  VOLUME     =    115651.1249
                                                    Density    =         0.9852
 DV/DL  =       710.8110
 ------------------------------------------------------------------------------

      R M S  F L U C T U A T I O N S

 NSTEP =   500000   TIME(PS) =    1200.000  TEMP(K) =     2.80  PRESS =   193.6
 Etot   =       121.7435  EKtot   =        63.4321  EPtot      =       104.0730
 BOND   =         0.9196  ANGLE   =         0.9425  DIHED      =         0.0000
 1-4 NB =         0.0000  1-4 EEL =         0.0000  VDWAALS    =        93.6473
 EELEC  =       160.3008  EHBOND  =         0.0000  RESTRAINT  =         0.0000
 EKCMT  =        45.4953  VIRIAL  =       487.9758  VOLUME     =       881.2352
                                                    Density    =         0.0070
 DV/DL  =        26.6655
 ------------------------------------------------------------------------------

      DV/DL, AVERAGES OVER  500000 STEPS

 NSTEP =   500000   TIME(PS) =    1200.000  TEMP(K) =     2.80  PRESS =     0.0
 Etot   =         0.0000  EKtot   =         0.0000  EPtot      =       710.8110
 BOND   =         0.0000  ANGLE   =         0.0000  DIHED      =         0.0000
 1-4 NB =         0.0000  1-4 EEL =         0.0000  VDWAALS    =         0.0000
 EELEC  =       710.8110  EHBOND  =         0.0000  RESTRAINT  =         0.0000
 EKCMT  =         0.0000  VIRIAL  =         0.0000  VOLUME     =         0.0000
                                                    Density    =         0.0000
 DV/DL  =       710.8110
 ------------------------------------------------------------------------------
