-------------------------------------------------------
          Amber 18 PMEMD                              2018
          -------------------------------------------------------

  [-O]verwriting output

File Assignments:

 Here is the input file:

 &cntrl
   nstlim=500000, nscm=1000,
   ntx=5, irest=1, ntpr=1000,
   tempi=300.0, temp0=300.0, ntt=3, gamma_ln=2.0,
   ntp=1, pres0=1.01325, taup=5.0,
   ntb=2, igb=0, cut=10.0,
   dt=0.002, ig=-1,
   ntc=2, ntf=2,
   iwrap=0,
   ntwr=1000, ntwx=50000, ntave=1000,
   ioutfm=1, ntwv=-1,
   ifsc = 0, icfe=1,
   clambda=0.56262,
   timask1=':1',
   timask2=':2', crgmask = ':2',
/

Note: ig = -1. Setting random seed to   265987 based on wallclock time in
      microseconds.

--------------------------------------------------------------------------------
   1.  RESOURCE   USE:
--------------------------------------------------------------------------------

 getting box info from netcdf restart file
 NATOM  =   11419 NTYPES =       4 NBONH =   11409 MBONA  =       8
 NTHETH =       0 MTHETA =      12 NPHIH =       0 MPHIA  =       0
 NHPARM =       0 NPARM  =       0 NNB   =   15234 NRES   =    3805
 NBONA  =       8 NTHETA =      12 NPHIA =       0 NUMBND =       3
 NUMANG =       1 NPTRA  =       0 NATYP =       4 NPHB   =       1
 IFBOX  =       2 NMXRS  =       5 IFCAP =       0 NEXTRA =       0
 NCOPY  =       0

     BOX TYPE: TRUNCATED OCTAHEDRON

--------------------------------------------------------------------------------
   2.  CONTROL  DATA  FOR  THE  RUN
--------------------------------------------------------------------------------

default_name

General flags:
     imin    =       0, nmropt  =       0

Nature and format of input:
     ntx     =       5, irest   =       1, ntrx    =       1

Nature and format of output:
     ntxo    =       2, ntpr    =    1000, ntrx    =       1, ntwr    =    1000
     iwrap   =       0, ntwx    =   50000, ntwv    =      -1, ntwe    =       0
     ioutfm  =       1, ntwprt  =       0, idecomp =       0, rbornstat=      0

Potential function:
     ntf     =       2, ntb     =       2, igb     =       0, nsnb    =      25
     ipol    =       0, gbsa    =       0, iesp    =       0
     dielc   =   1.00000, cut     =  10.00000, intdiel =   1.00000

Frozen or restrained atoms:
     ibelly  =       0, ntr     =       0

Molecular dynamics:
     nstlim  =    500000, nscm    =      1000, nrespa  =         1
     t       =   0.00000, dt      =   0.00200, vlimit  =  -1.00000

Langevin dynamics temperature regulation:
     ig      =  265987
     temp0   = 300.00000, tempi   = 300.00000, gamma_ln=   2.00000

Pressure regulation:
     ntp     =       1
     pres0   =   1.01325, comp    =  44.60000, taup    =   5.00000

SHAKE:
     ntc     =       2, jfastw  =       0
     tol     =   0.00001

Free energy options:
     icfe    =       1, ifsc    =       0, klambda =       1
     clambda =  0.5626, scalpha =  0.5000, scbeta  = 12.0000
     sceeorder =       2
     dynlmb =  0.0000 logdvdl =       0

Ewald parameters:
     verbose =       0, ew_type =       0, nbflag  =       1, use_pme =       1
     vdwmeth =       1, eedmeth =       1, netfrc  =       1
     Box X =   55.004   Box Y =   55.004   Box Z =   55.004
     Alpha =  109.471   Beta  =  109.471   Gamma =  109.471
     NFFT1 =   56       NFFT2 =   56       NFFT3 =   56
     Cutoff=   10.000   Tol   =0.100E-04
     Ewald Coefficient =  0.27511
     Interpolation order =    4
     TI Mask 1 :1; matches      5 atoms
     TI Mask 2 :2; matches      5 atoms
     TI region 1:   11414 atoms
     TI region 2:   11414 atoms
Removing charge of       1.2430 from atom       6
Removing charge of      -1.0605 from atom       7
Removing charge of      -1.0605 from atom       8
Removing charge of      -1.0605 from atom       9
Removing charge of      -1.0605 from atom      10
Total charge of  -2.99900001 removed from       5 atoms
     Checking for mismatched coordinates.

--------------------------------------------------------------------------------
   3.  ATOMIC COORDINATES AND VELOCITIES
--------------------------------------------------------------------------------

default_name
 begin time read from input coords =   200.000 ps

 Number of triangulated 3-point waters found:     3803

     Sum of charges for TI region  1 =  -2.99900001
     Assuming uniform neutralizing plasma

     Sum of charges for TI region  2 =   0.00000000
     Forcing neutrality...

--------------------------------------------------------------------------------
   4.  RESULTS
 NSTEP =     1000   TIME(PS) =     202.000  TEMP(K) =   297.60  PRESS =  -930.1
 Etot   =    -28895.0409  EKtot   =      6751.6847  EPtot      =    -35646.7256
 BOND   =         0.4022  ANGLE   =         6.6530  DIHED      =         0.0000
 1-4 NB =         0.0000  1-4 EEL =         0.0000  VDWAALS    =      5138.2757
 EELEC  =    -40792.0564  EHBOND  =         0.0000  RESTRAINT  =         0.0000
 EKCMT  =      3366.6840  VIRIAL  =      5897.2357  VOLUME     =    126012.8170
                                                    Density    =         0.9041
 DV/DL  =       533.7106
 ------------------------------------------------------------------------------

      A V E R A G E S   O V E R    1000 S T E P S

 NSTEP =     1000   TIME(PS) =     202.000  TEMP(K) =   300.76  PRESS =  -922.0
 Etot   =    -28776.6176  EKtot   =      6823.2668  EPtot      =    -35599.8844
 BOND   =         1.2030  ANGLE   =         7.6301  DIHED      =         0.0000
 1-4 NB =         0.0000  1-4 EEL =         0.0000  VDWAALS    =      5168.9613
 EELEC  =    -40777.6789  EHBOND  =         0.0000  RESTRAINT  =         0.0000
 EKCMT  =      3427.2799  VIRIAL  =      5956.6188  VOLUME     =    127036.9738
                                                    Density    =         0.8969
 DV/DL  =       558.2689
 ------------------------------------------------------------------------------

      R M S  F L U C T U A T I O N S

 NSTEP =     1000   TIME(PS) =     202.000  TEMP(K) =     2.48  PRESS =   141.3
 Etot   =        66.3647  EKtot   =        56.2837  EPtot      =        65.8591
 BOND   =         1.1097  ANGLE   =         0.7744  DIHED      =         0.0000
 1-4 NB =         0.0000  1-4 EEL =         0.0000  VDWAALS    =        76.9886
 EELEC  =       105.5143  EHBOND  =         0.0000  RESTRAINT  =         0.0000
 EKCMT  =        40.3456  VIRIAL  =       397.9860  VOLUME     =       595.8324
                                                    Density    =         0.0042
 DV/DL  =        27.3361
 ------------------------------------------------------------------------------

      A V E R A G E S   O V E R    1000 S T E P S

 NSTEP =     1000   TIME(PS) =     202.000  TEMP(K) =   300.76  PRESS =  -922.0
 Etot   =    -28776.6176  EKtot   =      6823.2668  EPtot      =    -35599.8844
 BOND   =         1.2030  ANGLE   =         7.6301  DIHED      =         0.0000
 1-4 NB =         0.0000  1-4 EEL =         0.0000  VDWAALS    =      5168.9613
 EELEC  =    -40777.6789  EHBOND  =         0.0000  RESTRAINT  =         0.0000
 EKCMT  =      3427.2799  VIRIAL  =      5956.6188  VOLUME     =    127036.9738
                                                    Density    =         0.8969
 DV/DL  =       558.2689
 ------------------------------------------------------------------------------

      R M S  F L U C T U A T I O N S

 NSTEP =     1000   TIME(PS) =     202.000  TEMP(K) =     2.48  PRESS =   141.3
 Etot   =        66.3647  EKtot   =        56.2837  EPtot      =        65.8591
 BOND   =         1.1097  ANGLE   =         0.7744  DIHED      =         0.0000
 1-4 NB =         0.0000  1-4 EEL =         0.0000  VDWAALS    =        76.9886
 EELEC  =       105.5143  EHBOND  =         0.0000  RESTRAINT  =         0.0000
 EKCMT  =        40.3456  VIRIAL  =       397.9860  VOLUME     =       595.8324
                                                    Density    =         0.0042
 DV/DL  =        27.3361
 ------------------------------------------------------------------------------

      DV/DL, AVERAGES OVER    1000 STEPS

 NSTEP =     1000   TIME(PS) =     202.000  TEMP(K) =     2.48  PRESS =     0.0
 Etot   =         0.0000  EKtot   =         0.0000  EPtot      =       558.2689
 BOND   =         0.0000  ANGLE   =         0.0000  DIHED      =         0.0000
 1-4 NB =         0.0000  1-4 EEL =         0.0000  VDWAALS    =         0.0000
 EELEC  =       558.2689  EHBOND  =         0.0000  RESTRAINT  =         0.0000
 EKCMT  =         0.0000  VIRIAL  =         0.0000  VOLUME     =         0.0000
                                                    Density    =         0.0000
 DV/DL  =       558.2689
 ------------------------------------------------------------------------------

      A V E R A G E S   O V E R    1000 S T E P S

 NSTEP =     2000   TIME(PS) =     204.000  TEMP(K) =   300.98  PRESS =  -840.6
 Etot   =    -28927.0402  EKtot   =      6828.2754  EPtot      =    -35755.3156
 BOND   =         2.4178  ANGLE   =         7.6575  DIHED      =         0.0000
 1-4 NB =         0.0000  1-4 EEL =         0.0000  VDWAALS    =      5202.0769
 EELEC  =    -40967.4677  EHBOND  =         0.0000  RESTRAINT  =         0.0000
 EKCMT  =      3426.9788  VIRIAL  =      5696.8277  VOLUME     =    125049.1344
                                                    Density    =         0.9111
 DV/DL  =       575.6436
 ------------------------------------------------------------------------------

      R M S  F L U C T U A T I O N S

 NSTEP =     2000   TIME(PS) =     204.000  TEMP(K) =     2.70  PRESS =   115.5
 Etot   =        54.6658  EKtot   =        61.3464  EPtot      =        51.4638
 BOND   =         1.2227  ANGLE   =         0.8854  DIHED      =         0.0000
 1-4 NB =         0.0000  1-4 EEL =         0.0000  VDWAALS    =        63.4281
 EELEC  =        87.9557  EHBOND  =         0.0000  RESTRAINT  =         0.0000
 EKCMT  =        44.0626  VIRIAL  =       319.3894  VOLUME     =       540.1667
                                                    Density    =         0.0039
 DV/DL  =        30.7938
 ------------------------------------------------------------------------------

      A V E R A G E S   O V E R    1000 S T E P S

 NSTEP =     2000   TIME(PS) =     204.000  TEMP(K) =   300.98  PRESS =  -840.6
 Etot   =    -28927.0402  EKtot   =      6828.2754  EPtot      =    -35755.3156
 BOND   =         2.4178  ANGLE   =         7.6575  DIHED      =         0.0000
 1-4 NB =         0.0000  1-4 EEL =         0.0000  VDWAALS    =      5202.0769
 EELEC  =    -40967.4677  EHBOND  =         0.0000  RESTRAINT  =         0.0000
 EKCMT  =      3426.9788  VIRIAL  =      5696.8277  VOLUME     =    125049.1344
                                                    Density    =         0.9111
 DV/DL  =       575.6436
 ------------------------------------------------------------------------------

      R M S  F L U C T U A T I O N S

 NSTEP =     2000   TIME(PS) =     204.000  TEMP(K) =     2.70  PRESS =   115.5
 Etot   =        54.6658  EKtot   =        61.3464  EPtot      =        51.4638
 BOND   =         1.2227  ANGLE   =         0.8854  DIHED      =         0.0000
 1-4 NB =         0.0000  1-4 EEL =         0.0000  VDWAALS    =        63.4281
 EELEC  =        87.9557  EHBOND  =         0.0000  RESTRAINT  =         0.0000
 EKCMT  =        44.0626  VIRIAL  =       319.3894  VOLUME     =       540.1667
                                                    Density    =         0.0039
 DV/DL  =        30.7938
 ------------------------------------------------------------------------------

      DV/DL, AVERAGES OVER    1000 STEPS

 NSTEP =     2000   TIME(PS) =     204.000  TEMP(K) =     2.70  PRESS =     0.0
 Etot   =         0.0000  EKtot   =         0.0000  EPtot      =       575.6436
 BOND   =         0.0000  ANGLE   =         0.0000  DIHED      =         0.0000
 1-4 NB =         0.0000  1-4 EEL =         0.0000  VDWAALS    =         0.0000
 EELEC  =       575.6436  EHBOND  =         0.0000  RESTRAINT  =         0.0000
 EKCMT  =         0.0000  VIRIAL  =         0.0000  VOLUME     =         0.0000
                                                    Density    =         0.0000
 DV/DL  =       575.6436
 ------------------------------------------------------------------------------

      A V E R A G E S   O V E R    1000 S T E P S

 NSTEP =   500000   TIME(PS) =    1200.000  TEMP(K) =   300.19  PRESS =    83.2
 Etot   =    -29581.4185  EKtot   =      6810.2414  EPtot      =    -36391.6600
 BOND   =         1.3691  ANGLE   =         7.9668  DIHED      =         0.0000
 1-4 NB =         0.0000  1-4 EEL =         0.0000  VDWAALS    =      5455.4172
 EELEC  =    -41856.4129  EHBOND  =         0.0000  RESTRAINT  =         0.0000
 EKCMT  =      3412.5553  VIRIAL  =      3204.9328  VOLUME     =    115613.6786
                                                    Density    =         0.9854
 DV/DL  =       559.1137
 ------------------------------------------------------------------------------

      R M S  F L U C T U A T I O N S

 NSTEP =   500000   TIME(PS) =    1200.000  TEMP(K) =     2.55  PRESS =   165.9
 Etot   =        86.9522  EKtot   =        57.8778  EPtot      =        78.2392
 BOND   =         0.8269  ANGLE   =         0.9667  DIHED      =         0.0000
 1-4 NB =         0.0000  1-4 EEL =         0.0000  VDWAALS    =        79.4263
 EELEC  =       103.0473  EHBOND  =         0.0000  RESTRAINT  =         0.0000
 EKCMT  =        42.4387  VIRIAL  =       420.7747  VOLUME     =        62.8414
                                                    Density    =         0.0005
 DV/DL  =        21.0372
 ------------------------------------------------------------------------------

      A V E R A G E S   O V E R    1000 S T E P S

 NSTEP =   500000   TIME(PS) =    1200.000  TEMP(K) =   300.19  PRESS =    83.2
 Etot   =    -29581.4185  EKtot   =      6810.2414  EPtot      =    -36391.6600
 BOND   =         1.3691  ANGLE   =         7.9668  DIHED      =         0.0000
 1-4 NB =         0.0000  1-4 EEL =         0.0000  VDWAALS    =      5455.4172
 EELEC  =    -41856.4129  EHBOND  =         0.0000  RESTRAINT  =         0.0000
 EKCMT  =      3412.5553  VIRIAL  =      3204.9328  VOLUME     =    115613.6786
                                                    Density    =         0.9854
 DV/DL  =       559.1137
 ------------------------------------------------------------------------------

      R M S  F L U C T U A T I O N S

 NSTEP =   500000   TIME(PS) =    1200.000  TEMP(K) =     2.55  PRESS =   165.9
 Etot   =        86.9522  EKtot   =        57.8778  EPtot      =        78.2392
 BOND   =         0.8269  ANGLE   =         0.9667  DIHED      =         0.0000
 1-4 NB =         0.0000  1-4 EEL =         0.0000  VDWAALS    =        79.4263
 EELEC  =       103.0473  EHBOND  =         0.0000  RESTRAINT  =         0.0000
 EKCMT  =        42.4387  VIRIAL  =       420.7747  VOLUME     =        62.8414
                                                    Density    =         0.0005
 DV/DL  =        21.0372
 ------------------------------------------------------------------------------

      DV/DL, AVERAGES OVER    1000 STEPS

 NSTEP =   500000   TIME(PS) =    1200.000  TEMP(K) =     2.55  PRESS =     0.0
 Etot   =         0.0000  EKtot   =         0.0000  EPtot      =       559.1137
 BOND   =         0.0000  ANGLE   =         0.0000  DIHED      =         0.0000
 1-4 NB =         0.0000  1-4 EEL =         0.0000  VDWAALS    =         0.0000
 EELEC  =       559.1137  EHBOND  =         0.0000  RESTRAINT  =         0.0000
 EKCMT  =         0.0000  VIRIAL  =         0.0000  VOLUME     =         0.0000
                                                    Density    =         0.0000
 DV/DL  =       559.1137
 ------------------------------------------------------------------------------

      A V E R A G E S   O V E R  500000 S T E P S

 NSTEP =   500000   TIME(PS) =    1200.000  TEMP(K) =   300.45  PRESS =   -10.4
 Etot   =    -29598.9366  EKtot   =      6816.3442  EPtot      =    -36415.2808
 BOND   =         1.2373  ANGLE   =         7.7579  DIHED      =         0.0000
 1-4 NB =         0.0000  1-4 EEL =         0.0000  VDWAALS    =      5428.7000
 EELEC  =    -41852.9760  EHBOND  =         0.0000  RESTRAINT  =         0.0000
 EKCMT  =      3420.6838  VIRIAL  =      3448.2385  VOLUME     =    115708.4539
                                                    Density    =         0.9847
 DV/DL  =       570.3260
 ------------------------------------------------------------------------------

      R M S  F L U C T U A T I O N S

 NSTEP =   500000   TIME(PS) =    1200.000  TEMP(K) =     2.79  PRESS =   192.9
 Etot   =       126.2825  EKtot   =        63.3841  EPtot      =       107.7526
 BOND   =         0.8711  ANGLE   =         0.9494  DIHED      =         0.0000
 1-4 NB =         0.0000  1-4 EEL =         0.0000  VDWAALS    =        94.2048
 EELEC  =       165.1204  EHBOND  =         0.0000  RESTRAINT  =         0.0000
 EKCMT  =        44.7414  VIRIAL  =       486.4950  VOLUME     =       880.3471
                                                    Density    =         0.0070
 DV/DL  =        27.3756
 ------------------------------------------------------------------------------

      A V E R A G E S   O V E R  500000 S T E P S

 NSTEP =   500000   TIME(PS) =    1200.000  TEMP(K) =   300.45  PRESS =   -10.4
 Etot   =    -29598.9366  EKtot   =      6816.3442  EPtot      =    -36415.2808
 BOND   =         1.2373  ANGLE   =         7.7579  DIHED      =         0.0000
 1-4 NB =         0.0000  1-4 EEL =         0.0000  VDWAALS    =      5428.7000
 EELEC  =    -41852.9760  EHBOND  =         0.0000  RESTRAINT  =         0.0000
 EKCMT  =      3420.6838  VIRIAL  =      3448.2385  VOLUME     =    115708.4539
                                                    Density    =         0.9847
 DV/DL  =       570.3260
 ------------------------------------------------------------------------------

      R M S  F L U C T U A T I O N S

 NSTEP =   500000   TIME(PS) =    1200.000  TEMP(K) =     2.79  PRESS =   192.9
 Etot   =       126.2825  EKtot   =        63.3841  EPtot      =       107.7526
 BOND   =         0.8711  ANGLE   =         0.9494  DIHED      =         0.0000
 1-4 NB =         0.0000  1-4 EEL =         0.0000  VDWAALS    =        94.2048
 EELEC  =       165.1204  EHBOND  =         0.0000  RESTRAINT  =         0.0000
 EKCMT  =        44.7414  VIRIAL  =       486.4950  VOLUME     =       880.3471
                                                    Density    =         0.0070
 DV/DL  =        27.3756
 ------------------------------------------------------------------------------

      DV/DL, AVERAGES OVER  500000 STEPS

 NSTEP =   500000   TIME(PS) =    1200.000  TEMP(K) =     2.79  PRESS =     0.0
 Etot   =         0.0000  EKtot   =         0.0000  EPtot      =       570.3260
 BOND   =         0.0000  ANGLE   =         0.0000  DIHED      =         0.0000
 1-4 NB =         0.0000  1-4 EEL =         0.0000  VDWAALS    =         0.0000
 EELEC  =       570.3260  EHBOND  =         0.0000  RESTRAINT  =         0.0000
 EKCMT  =         0.0000  VIRIAL  =         0.0000  VOLUME     =         0.0000
                                                    Density    =         0.0000
 DV/DL  =       570.3260
 ------------------------------------------------------------------------------
